
     RDKit          3D

 57 60  0  0  0  0  0  0  0  0999 V2000
    8.5116   -0.9436    1.9497 O   0  0  0  0  0  0  0  0  0  0  0  0
    7.8940   -0.4449    1.0119 C   0  0  0  0  0  0  0  0  0  0  0  0
    8.5872    0.0960   -0.2168 C   0  0  0  0  0  0  0  0  0  0  0  0
    7.7440   -0.0750   -1.4685 C   0  0  0  0  0  0  0  0  0  0  0  0
    6.3297    0.3779   -1.2396 C   0  0  0  0  0  0  0  0  0  0  0  0
    5.5381    0.8389   -2.2926 C   0  0  0  0  0  0  0  0  0  0  0  0
    4.1992    1.1634   -2.0659 C   0  0  0  0  0  0  0  0  0  0  0  0
    3.6304    1.0222   -0.7960 C   0  0  0  0  0  0  0  0  0  0  0  0
    2.3093    1.3642   -0.7332 O   0  0  0  0  0  0  0  0  0  0  0  0
    1.6471    1.3624    0.5312 C   0  0  0  0  0  0  0  0  0  0  0  0
    1.0805   -0.0151    0.8807 C   0  0  0  0  0  0  0  0  0  0  0  0
    0.2605   -0.6729   -0.2372 C   0  0  0  0  0  0  0  0  0  0  0  0
   -0.9000    0.1743   -0.7789 C   0  0  0  0  0  0  0  0  0  0  0  0
   -1.8446    0.6252    0.2548 N   0  0  0  0  0  0  0  0  0  0  0  0
   -2.5431   -0.5164    0.8969 C   0  0  0  0  0  0  0  0  0  0  0  0
   -3.9047   -0.1573    1.5423 C   0  0  0  0  0  0  0  0  0  0  0  0
   -4.8347    0.4274    0.5485 N   0  0  0  0  0  0  0  0  0  0  0  0
   -6.1367   -0.0840    0.4970 C   0  0  0  0  0  0  0  0  0  0  0  0
   -6.6392   -0.6269   -0.7038 C   0  0  0  0  0  0  0  0  0  0  0  0
   -7.9240   -1.1688   -0.7977 C   0  0  0  0  0  0  0  0  0  0  0  0
   -8.7555   -1.1777    0.3140 C   0  0  0  0  0  0  0  0  0  0  0  0
   -8.3073   -0.6336    1.5182 C   0  0  0  0  0  0  0  0  0  0  0  0
   -9.4167   -0.6692    2.8496 Cl  0  0  0  0  0  0  0  0  0  0  0  0
   -7.0138   -0.0828    1.6172 C   0  0  0  0  0  0  0  0  0  0  0  0
   -6.5346    0.6797    3.1119 Cl  0  0  0  0  0  0  0  0  0  0  0  0
   -4.1984    0.9913   -0.6539 C   0  0  0  0  0  0  0  0  0  0  0  0
   -2.8223    1.5971   -0.2948 C   0  0  0  0  0  0  0  0  0  0  0  0
    4.4161    0.5490    0.2544 C   0  0  0  0  0  0  0  0  0  0  0  0
    5.7599    0.2362    0.0296 C   0  0  0  0  0  0  0  0  0  0  0  0
    6.5396   -0.2548    1.0826 N   0  0  0  0  0  0  0  0  0  0  0  0
    9.5442   -0.4211   -0.3442 H   0  0  0  0  0  0  0  0  0  0  0  0
    8.7960    1.1569   -0.0334 H   0  0  0  0  0  0  0  0  0  0  0  0
    8.2004    0.4915   -2.2884 H   0  0  0  0  0  0  0  0  0  0  0  0
    7.7217   -1.1310   -1.7652 H   0  0  0  0  0  0  0  0  0  0  0  0
    5.9490    0.9386   -3.2935 H   0  0  0  0  0  0  0  0  0  0  0  0
    3.5877    1.5232   -2.8905 H   0  0  0  0  0  0  0  0  0  0  0  0
    0.8232    2.0805    0.4496 H   0  0  0  0  0  0  0  0  0  0  0  0
    2.2859    1.7543    1.3311 H   0  0  0  0  0  0  0  0  0  0  0  0
    1.9038   -0.6973    1.1215 H   0  0  0  0  0  0  0  0  0  0  0  0
    0.4772    0.0700    1.7919 H   0  0  0  0  0  0  0  0  0  0  0  0
    0.9268   -0.9164   -1.0744 H   0  0  0  0  0  0  0  0  0  0  0  0
   -0.1180   -1.6350    0.1288 H   0  0  0  0  0  0  0  0  0  0  0  0
   -1.4249   -0.3949   -1.5576 H   0  0  0  0  0  0  0  0  0  0  0  0
   -0.4677    1.0479   -1.2829 H   0  0  0  0  0  0  0  0  0  0  0  0
   -2.7276   -1.3107    0.1605 H   0  0  0  0  0  0  0  0  0  0  0  0
   -1.8934   -0.9390    1.6717 H   0  0  0  0  0  0  0  0  0  0  0  0
   -3.7362    0.5695    2.3459 H   0  0  0  0  0  0  0  0  0  0  0  0
   -4.3173   -1.0694    1.9922 H   0  0  0  0  0  0  0  0  0  0  0  0
   -6.0215   -0.6637   -1.5971 H   0  0  0  0  0  0  0  0  0  0  0  0
   -8.2690   -1.5878   -1.7398 H   0  0  0  0  0  0  0  0  0  0  0  0
   -9.7537   -1.6015    0.2361 H   0  0  0  0  0  0  0  0  0  0  0  0
   -4.0520    0.2214   -1.4205 H   0  0  0  0  0  0  0  0  0  0  0  0
   -4.8349    1.7789   -1.0730 H   0  0  0  0  0  0  0  0  0  0  0  0
   -2.4161    2.1240   -1.1673 H   0  0  0  0  0  0  0  0  0  0  0  0
   -2.9728    2.3686    0.4717 H   0  0  0  0  0  0  0  0  0  0  0  0
    4.0087    0.4191    1.2498 H   0  0  0  0  0  0  0  0  0  0  0  0
    6.1089   -0.4982    1.9654 H   0  0  0  0  0  0  0  0  0  0  0  0
  1  2  2  0
  2  3  1  0
  3  4  1  0
  4  5  1  0
  5  6  2  0
  6  7  1  0
  7  8  2  0
  8  9  1  0
  9 10  1  0
 10 11  1  0
 11 12  1  0
 12 13  1  0
 13 14  1  0
 14 15  1  0
 15 16  1  0
 16 17  1  0
 17 18  1  0
 18 19  2  0
 19 20  1  0
 20 21  2  0
 21 22  1  0
 22 23  1  0
 22 24  2  0
 24 25  1  0
 17 26  1  0
 26 27  1  0
  8 28  1  0
 28 29  2  0
 29 30  1  0
 30  2  1  0
 29  5  1  0
 27 14  1  0
 24 18  1  0
  3 31  1  0
  3 32  1  0
  4 33  1  0
  4 34  1  0
  6 35  1  0
  7 36  1  0
 10 37  1  0
 10 38  1  0
 11 39  1  0
 11 40  1  0
 12 41  1  0
 12 42  1  0
 13 43  1  0
 13 44  1  0
 15 45  1  0
 15 46  1  0
 16 47  1  0
 16 48  1  0
 19 49  1  0
 20 50  1  0
 21 51  1  0
 26 52  1  0
 26 53  1  0
 27 54  1  0
 27 55  1  0
 28 56  1  0
 30 57  1  0
M  END
$$$$
