caffeine
     RDKit          3D

 24 25  0  0  0  0  0  0  0  0999 V2000
    3.2697    0.6039   -0.2265 C   0  0  0  0  0  0  0  0  0  0  0  0
    2.1248   -0.2693   -0.2778 N   0  0  0  0  0  0  0  0  0  0  0  0
    2.1432   -1.6128   -0.5450 C   0  0  0  0  0  0  0  0  0  0  0  0
    0.9309   -2.1303   -0.5189 N   0  0  0  0  0  0  0  0  0  0  0  0
    0.1189   -1.0768   -0.2251 C   0  0  0  0  0  0  0  0  0  0  0  0
    0.8211    0.0798   -0.0711 C   0  0  0  0  0  0  0  0  0  0  0  0
    0.2117    1.3256    0.2393 C   0  0  0  0  0  0  0  0  0  0  0  0
    0.8540    2.3626    0.3760 O   0  0  0  0  0  0  0  0  0  0  0  0
   -1.1771    1.2314    0.3675 N   0  0  0  0  0  0  0  0  0  0  0  0
   -1.9395    0.0540    0.2157 C   0  0  0  0  0  0  0  0  0  0  0  0
   -3.1669    0.0717    0.3490 O   0  0  0  0  0  0  0  0  0  0  0  0
   -1.2475   -1.1187   -0.0889 N   0  0  0  0  0  0  0  0  0  0  0  0
   -1.9573   -2.3729   -0.2614 C   0  0  0  0  0  0  0  0  0  0  0  0
   -1.9175    2.4372    0.6838 C   0  0  0  0  0  0  0  0  0  0  0  0
    4.1759    0.0296   -0.4357 H   0  0  0  0  0  0  0  0  0  0  0  0
    3.1462    1.3846   -0.9812 H   0  0  0  0  0  0  0  0  0  0  0  0
    3.3319    1.0380    0.7744 H   0  0  0  0  0  0  0  0  0  0  0  0
    3.0552   -2.1598   -0.7494 H   0  0  0  0  0  0  0  0  0  0  0  0
   -1.5893   -3.0958    0.4735 H   0  0  0  0  0  0  0  0  0  0  0  0
   -3.0352   -2.2539   -0.1240 H   0  0  0  0  0  0  0  0  0  0  0  0
   -1.7738   -2.7513   -1.2721 H   0  0  0  0  0  0  0  0  0  0  0  0
   -2.4622    2.2844    1.6213 H   0  0  0  0  0  0  0  0  0  0  0  0
   -2.6455    2.6265   -0.1119 H   0  0  0  0  0  0  0  0  0  0  0  0
   -1.2715    3.3124    0.7882 H   0  0  0  0  0  0  0  0  0  0  0  0
  1  2  1  0
  2  3  1  0
  3  4  2  0
  4  5  1  0
  5  6  2  0
  6  7  1  0
  7  8  2  0
  7  9  1  0
  9 10  1  0
 10 11  2  0
 10 12  1  0
 12 13  1  0
  9 14  1  0
  6  2  1  0
 12  5  1  0
  1 15  1  0
  1 16  1  0
  1 17  1  0
  3 18  1  0
 13 19  1  0
 13 20  1  0
 13 21  1  0
 14 22  1  0
 14 23  1  0
 14 24  1  0
M  END
$$$$
