imatinib
     RDKit          3D

 68 72  0  0  0  0  0  0  0  0999 V2000
   -5.4381   -2.4514   -3.6117 C   0  0  0  0  0  0  0  0  0  0  0  0
   -4.1133   -1.8857   -3.1717 C   0  0  0  0  0  0  0  0  0  0  0  0
   -3.0157   -2.0109   -4.0396 C   0  0  0  0  0  0  0  0  0  0  0  0
   -1.7601   -1.5133   -3.6896 C   0  0  0  0  0  0  0  0  0  0  0  0
   -1.5795   -0.8799   -2.4667 C   0  0  0  0  0  0  0  0  0  0  0  0
   -0.3463   -0.3539   -2.0248 N   0  0  0  0  0  0  0  0  0  0  0  0
    0.8449   -0.2980   -2.7248 C   0  0  0  0  0  0  0  0  0  0  0  0
    1.0316   -0.6334   -3.8884 O   0  0  0  0  0  0  0  0  0  0  0  0
    1.9917    0.2762   -1.9637 C   0  0  0  0  0  0  0  0  0  0  0  0
    2.9419    1.0324   -2.6593 C   0  0  0  0  0  0  0  0  0  0  0  0
    4.0317    1.5880   -1.9841 C   0  0  0  0  0  0  0  0  0  0  0  0
    4.1963    1.3808   -0.6070 C   0  0  0  0  0  0  0  0  0  0  0  0
    5.3688    2.0045    0.1257 C   0  0  0  0  0  0  0  0  0  0  0  0
    6.0691    1.0689    1.0168 N   0  0  0  0  0  0  0  0  0  0  0  0
    6.8185    0.0240    0.2831 C   0  0  0  0  0  0  0  0  0  0  0  0
    8.3415    0.2723    0.2042 C   0  0  0  0  0  0  0  0  0  0  0  0
    8.9831    0.3520    1.5317 N   0  0  0  0  0  0  0  0  0  0  0  0
   10.2486    1.0741    1.4525 C   0  0  0  0  0  0  0  0  0  0  0  0
    8.0736    0.9296    2.5404 C   0  0  0  0  0  0  0  0  0  0  0  0
    6.9508    1.8068    1.9453 C   0  0  0  0  0  0  0  0  0  0  0  0
    3.2421    0.6158    0.0822 C   0  0  0  0  0  0  0  0  0  0  0  0
    2.1518    0.0572   -0.5904 C   0  0  0  0  0  0  0  0  0  0  0  0
   -2.6756   -0.7561   -1.5980 C   0  0  0  0  0  0  0  0  0  0  0  0
   -3.9530   -1.2421   -1.9235 C   0  0  0  0  0  0  0  0  0  0  0  0
   -5.0458   -1.1285   -1.0503 N   0  0  0  0  0  0  0  0  0  0  0  0
   -5.2244   -0.6314    0.2375 C   0  0  0  0  0  0  0  0  0  0  0  0
   -4.2107   -0.1547    0.9709 N   0  0  0  0  0  0  0  0  0  0  0  0
   -4.4991    0.2918    2.2039 C   0  0  0  0  0  0  0  0  0  0  0  0
   -5.7617    0.2765    2.7403 C   0  0  0  0  0  0  0  0  0  0  0  0
   -6.7574   -0.2322    1.9325 C   0  0  0  0  0  0  0  0  0  0  0  0
   -6.4910   -0.6781    0.6836 N   0  0  0  0  0  0  0  0  0  0  0  0
   -8.1668   -0.3216    2.3525 C   0  0  0  0  0  0  0  0  0  0  0  0
   -8.5618   -0.4911    3.6885 C   0  0  0  0  0  0  0  0  0  0  0  0
   -9.9138   -0.5658    4.0275 C   0  0  0  0  0  0  0  0  0  0  0  0
  -10.8521   -0.4702    3.0160 C   0  0  0  0  0  0  0  0  0  0  0  0
  -10.5304   -0.3122    1.7178 N   0  0  0  0  0  0  0  0  0  0  0  0
   -9.2064   -0.2485    1.4215 C   0  0  0  0  0  0  0  0  0  0  0  0
   -5.7807   -3.2123   -2.9029 H   0  0  0  0  0  0  0  0  0  0  0  0
   -5.3681   -2.9286   -4.5951 H   0  0  0  0  0  0  0  0  0  0  0  0
   -6.1848   -1.6543   -3.6859 H   0  0  0  0  0  0  0  0  0  0  0  0
   -3.1275   -2.5039   -5.0033 H   0  0  0  0  0  0  0  0  0  0  0  0
   -0.9448   -1.6425   -4.3940 H   0  0  0  0  0  0  0  0  0  0  0  0
   -0.3666    0.0846   -1.1135 H   0  0  0  0  0  0  0  0  0  0  0  0
    2.8327    1.1919   -3.7305 H   0  0  0  0  0  0  0  0  0  0  0  0
    4.7538    2.1776   -2.5446 H   0  0  0  0  0  0  0  0  0  0  0  0
    6.0748    2.4470   -0.5895 H   0  0  0  0  0  0  0  0  0  0  0  0
    4.9527    2.8350    0.7121 H   0  0  0  0  0  0  0  0  0  0  0  0
    6.4292   -0.1281   -0.7303 H   0  0  0  0  0  0  0  0  0  0  0  0
    6.6493   -0.9267    0.8059 H   0  0  0  0  0  0  0  0  0  0  0  0
    8.8080   -0.5428   -0.3613 H   0  0  0  0  0  0  0  0  0  0  0  0
    8.5062    1.1958   -0.3679 H   0  0  0  0  0  0  0  0  0  0  0  0
   10.1084    2.1249    1.1750 H   0  0  0  0  0  0  0  0  0  0  0  0
   10.7719    1.0384    2.4144 H   0  0  0  0  0  0  0  0  0  0  0  0
   10.9132    0.6075    0.7168 H   0  0  0  0  0  0  0  0  0  0  0  0
    7.6115    0.0959    3.0854 H   0  0  0  0  0  0  0  0  0  0  0  0
    8.6260    1.5028    3.2956 H   0  0  0  0  0  0  0  0  0  0  0  0
    6.3399    2.2066    2.7631 H   0  0  0  0  0  0  0  0  0  0  0  0
    7.4182    2.6653    1.4433 H   0  0  0  0  0  0  0  0  0  0  0  0
    3.3633    0.4362    1.1495 H   0  0  0  0  0  0  0  0  0  0  0  0
    1.4597   -0.5688   -0.0343 H   0  0  0  0  0  0  0  0  0  0  0  0
   -2.5231   -0.2595   -0.6459 H   0  0  0  0  0  0  0  0  0  0  0  0
   -5.9421   -1.4378   -1.3938 H   0  0  0  0  0  0  0  0  0  0  0  0
   -3.6543    0.6780    2.7665 H   0  0  0  0  0  0  0  0  0  0  0  0
   -5.9452    0.6616    3.7335 H   0  0  0  0  0  0  0  0  0  0  0  0
   -7.8257   -0.5876    4.4823 H   0  0  0  0  0  0  0  0  0  0  0  0
  -10.2255   -0.7017    5.0572 H   0  0  0  0  0  0  0  0  0  0  0  0
  -11.9159   -0.5234    3.2284 H   0  0  0  0  0  0  0  0  0  0  0  0
   -8.9972   -0.1232    0.3608 H   0  0  0  0  0  0  0  0  0  0  0  0
  1  2  1  0
  2  3  2  0
  3  4  1  0
  4  5  2  0
  5  6  1  0
  6  7  1  0
  7  8  2  0
  7  9  1  0
  9 10  2  0
 10 11  1  0
 11 12  2  0
 12 13  1  0
 13 14  1  0
 14 15  1  0
 15 16  1  0
 16 17  1  0
 17 18  1  0
 17 19  1  0
 19 20  1  0
 12 21  1  0
 21 22  2  0
  5 23  1  0
 23 24  2  0
 24 25  1  0
 25 26  1  0
 26 27  2  0
 27 28  1  0
 28 29  2  0
 29 30  1  0
 30 31  2  0
 30 32  1  0
 32 33  2  0
 33 34  1  0
 34 35  2  0
 35 36  1  0
 36 37  2  0
 24  2  1  0
 22  9  1  0
 20 14  1  0
 31 26  1  0
 37 32  1  0
  1 38  1  0
  1 39  1  0
  1 40  1  0
  3 41  1  0
  4 42  1  0
  6 43  1  0
 10 44  1  0
 11 45  1  0
 13 46  1  0
 13 47  1  0
 15 48  1  0
 15 49  1  0
 16 50  1  0
 16 51  1  0
 18 52  1  0
 18 53  1  0
 18 54  1  0
 19 55  1  0
 19 56  1  0
 20 57  1  0
 20 58  1  0
 21 59  1  0
 22 60  1  0
 23 61  1  0
 25 62  1  0
 28 63  1  0
 29 64  1  0
 33 65  1  0
 34 66  1  0
 35 67  1  0
 37 68  1  0
M  END
$$$$
