quercetin
     RDKit          3D

 32 34  0  0  0  0  0  0  0  0999 V2000
    2.2262   -2.7352    1.2190 O   0  0  0  0  0  0  0  0  0  0  0  0
    1.6899   -1.7189    0.7836 C   0  0  0  0  0  0  0  0  0  0  0  0
    0.2187   -1.6526    0.6287 C   0  0  0  0  0  0  0  0  0  0  0  0
   -0.5066   -2.7691    0.9997 O   0  0  0  0  0  0  0  0  0  0  0  0
   -0.3269   -0.5170    0.1562 C   0  0  0  0  0  0  0  0  0  0  0  0
   -1.7821   -0.3379   -0.0289 C   0  0  0  0  0  0  0  0  0  0  0  0
   -2.5495   -1.2762   -0.7428 C   0  0  0  0  0  0  0  0  0  0  0  0
   -3.9201   -1.0828   -0.9364 C   0  0  0  0  0  0  0  0  0  0  0  0
   -4.5220    0.0528   -0.4194 C   0  0  0  0  0  0  0  0  0  0  0  0
   -5.8603    0.2433   -0.6087 O   0  0  0  0  0  0  0  0  0  0  0  0
   -3.7778    0.9942    0.2852 C   0  0  0  0  0  0  0  0  0  0  0  0
   -4.4370    2.0916    0.7681 O   0  0  0  0  0  0  0  0  0  0  0  0
   -2.4123    0.8108    0.4814 C   0  0  0  0  0  0  0  0  0  0  0  0
    0.4052    0.6130   -0.1876 O   0  0  0  0  0  0  0  0  0  0  0  0
    1.7722    0.5767   -0.0727 C   0  0  0  0  0  0  0  0  0  0  0  0
    2.4680    1.7258   -0.4535 C   0  0  0  0  0  0  0  0  0  0  0  0
    3.8570    1.7438   -0.3525 C   0  0  0  0  0  0  0  0  0  0  0  0
    4.5795    2.8423   -0.7134 O   0  0  0  0  0  0  0  0  0  0  0  0
    4.5563    0.6374    0.1223 C   0  0  0  0  0  0  0  0  0  0  0  0
    3.8575   -0.5059    0.4992 C   0  0  0  0  0  0  0  0  0  0  0  0
    4.5967   -1.5621    0.9573 O   0  0  0  0  0  0  0  0  0  0  0  0
    2.4637   -0.5363    0.4002 C   0  0  0  0  0  0  0  0  0  0  0  0
    0.1560   -3.4173    1.3190 H   0  0  0  0  0  0  0  0  0  0  0  0
   -2.0849   -2.1695   -1.1555 H   0  0  0  0  0  0  0  0  0  0  0  0
   -4.5087   -1.8120   -1.4846 H   0  0  0  0  0  0  0  0  0  0  0  0
   -6.0533    1.0906   -0.1603 H   0  0  0  0  0  0  0  0  0  0  0  0
   -3.7990    2.6399    1.2560 H   0  0  0  0  0  0  0  0  0  0  0  0
   -1.8316    1.5460    1.0301 H   0  0  0  0  0  0  0  0  0  0  0  0
    1.9200    2.5868   -0.8233 H   0  0  0  0  0  0  0  0  0  0  0  0
    3.9790    3.5291   -1.0472 H   0  0  0  0  0  0  0  0  0  0  0  0
    5.6400    0.6655    0.1967 H   0  0  0  0  0  0  0  0  0  0  0  0
    3.9862   -2.2969    1.1874 H   0  0  0  0  0  0  0  0  0  0  0  0
  1  2  2  0
  2  3  1  0
  3  4  1  0
  3  5  2  0
  5  6  1  0
  6  7  2  0
  7  8  1  0
  8  9  2  0
  9 10  1  0
  9 11  1  0
 11 12  1  0
 11 13  2  0
  5 14  1  0
 14 15  1  0
 15 16  2  0
 16 17  1  0
 17 18  1  0
 17 19  2  0
 19 20  1  0
 20 21  1  0
 20 22  2  0
 22  2  1  0
 13  6  1  0
 22 15  1  0
  4 23  1  0
  7 24  1  0
  8 25  1  0
 10 26  1  0
 12 27  1  0
 13 28  1  0
 16 29  1  0
 18 30  1  0
 19 31  1  0
 21 32  1  0
M  END
$$$$
