caffeine
     RDKit          3D

 14 15  0  0  0  0  0  0  0  0999 V2000
  106.6037  126.9662   44.4282 C   0  0  0  0  0  0  0  0  0  0  0  0
  105.5932  127.9679   44.2751 N   0  0  0  0  0  0  0  0  0  0  0  0
  105.2629  128.9519   45.1311 C   0  0  0  0  0  0  0  0  0  0  0  0
  104.2718  129.6562   44.5970 N   0  0  0  0  0  0  0  0  0  0  0  0
  103.9513  129.1515   43.4135 C   0  0  0  0  0  0  0  0  0  0  0  0
  104.7929  128.0692   43.1987 C   0  0  0  0  0  0  0  0  0  0  0  0
  104.6462  127.3804   42.0251 C   0  0  0  0  0  0  0  0  0  0  0  0
  105.4146  126.3907   41.8269 O   0  0  0  0  0  0  0  0  0  0  0  0
  103.7394  127.7203   41.1162 N   0  0  0  0  0  0  0  0  0  0  0  0
  102.9487  128.7761   41.3718 C   0  0  0  0  0  0  0  0  0  0  0  0
  102.0952  129.0615   40.4685 O   0  0  0  0  0  0  0  0  0  0  0  0
  103.0414  129.4879   42.4950 N   0  0  0  0  0  0  0  0  0  0  0  0
  102.1506  130.6273   42.7138 C   0  0  0  0  0  0  0  0  0  0  0  0
  103.6222  126.9614   39.8907 C   0  0  0  0  0  0  0  0  0  0  0  0
  1  2  1  6
  2  3  1  0
  3  4  2  0
  4  5  1  0
  5  6  2  0
  6  7  1  0
  7  8  2  0
  7  9  1  0
  9 10  1  0
 10 11  2  0
 10 12  1  0
 13 12  1  6
 14  9  1  1
  6  2  1  0
 12  5  1  0
M  END
$$$$
