caffeine
     RDKit          3D

 14 15  0  0  0  0  0  0  0  0999 V2000
  107.1928  126.7325   43.5242 C   0  0  0  0  0  0  0  0  0  0  0  0
  106.1023  127.5628   43.9358 N   0  0  0  0  0  0  0  0  0  0  0  0
  105.9747  128.2595   45.0796 C   0  0  0  0  0  0  0  0  0  0  0  0
  104.8082  128.8936   45.0556 N   0  0  0  0  0  0  0  0  0  0  0  0
  104.1756  128.6242   43.9219 C   0  0  0  0  0  0  0  0  0  0  0  0
  104.9973  127.7721   43.1978 C   0  0  0  0  0  0  0  0  0  0  0  0
  104.5482  127.3522   41.9750 C   0  0  0  0  0  0  0  0  0  0  0  0
  105.2979  126.5731   41.3115 O   0  0  0  0  0  0  0  0  0  0  0  0
  103.3746  127.7352   41.4849 N   0  0  0  0  0  0  0  0  0  0  0  0
  102.6162  128.5610   42.2251 C   0  0  0  0  0  0  0  0  0  0  0  0
  101.4995  128.8991   41.7107 O   0  0  0  0  0  0  0  0  0  0  0  0
  102.9964  129.0054   43.4229 N   0  0  0  0  0  0  0  0  0  0  0  0
  102.1244  129.9035   44.1799 C   0  0  0  0  0  0  0  0  0  0  0  0
  102.9430  127.2646   40.1873 C   0  0  0  0  0  0  0  0  0  0  0  0
  1  2  1  6
  2  3  1  0
  3  4  2  0
  4  5  1  0
  5  6  2  0
  6  7  1  0
  7  8  2  0
  7  9  1  0
  9 10  1  0
 10 11  2  0
 10 12  1  0
 13 12  1  6
 14  9  1  1
  6  2  1  0
 12  5  1  0
M  END
$$$$
