caffeine
     RDKit          3D

 14 15  0  0  0  0  0  0  0  0999 V2000
  107.0006  126.6002   43.7668 C   0  0  0  0  0  0  0  0  0  0  0  0
  105.9535  127.5214   44.0875 N   0  0  0  0  0  0  0  0  0  0  0  0
  105.7837  128.2233   45.2227 C   0  0  0  0  0  0  0  0  0  0  0  0
  104.6835  128.9569   45.1006 N   0  0  0  0  0  0  0  0  0  0  0  0
  104.1353  128.7471   43.9117 C   0  0  0  0  0  0  0  0  0  0  0  0
  104.9422  127.8286   43.2553 C   0  0  0  0  0  0  0  0  0  0  0  0
  104.5710  127.4531   41.9927 C   0  0  0  0  0  0  0  0  0  0  0  0
  105.3073  126.6134   41.3909 O   0  0  0  0  0  0  0  0  0  0  0  0
  103.4843  127.9386   41.4031 N   0  0  0  0  0  0  0  0  0  0  0  0
  102.7365  128.8254   42.0809 C   0  0  0  0  0  0  0  0  0  0  0  0
  101.7046  129.2612   41.4717 O   0  0  0  0  0  0  0  0  0  0  0  0
  103.0437  129.2314   43.3128 N   0  0  0  0  0  0  0  0  0  0  0  0
  102.1879  130.2000   43.9979 C   0  0  0  0  0  0  0  0  0  0  0  0
  103.1329  127.5113   40.0669 C   0  0  0  0  0  0  0  0  0  0  0  0
  1  2  1  6
  2  3  1  0
  3  4  2  0
  4  5  1  0
  5  6  2  0
  6  7  1  0
  7  8  2  0
  7  9  1  0
  9 10  1  0
 10 11  2  0
 10 12  1  0
 13 12  1  6
 14  9  1  1
  6  2  1  0
 12  5  1  0
M  END
$$$$
