caffeine
     RDKit          3D

 14 15  0  0  0  0  0  0  0  0999 V2000
  106.4302  127.1941   44.6845 C   0  0  0  0  0  0  0  0  0  0  0  0
  105.4161  128.1573   44.3815 N   0  0  0  0  0  0  0  0  0  0  0  0
  104.9867  129.1789   45.1443 C   0  0  0  0  0  0  0  0  0  0  0  0
  104.0336  129.8241   44.4819 N   0  0  0  0  0  0  0  0  0  0  0  0
  103.8345  129.2442   43.3063 C   0  0  0  0  0  0  0  0  0  0  0  0
  104.7160  128.1750   43.2329 C   0  0  0  0  0  0  0  0  0  0  0  0
  104.6932  127.4167   42.0938 C   0  0  0  0  0  0  0  0  0  0  0  0
  105.4984  126.4388   42.0249 O   0  0  0  0  0  0  0  0  0  0  0  0
  103.8665  127.6792   41.0881 N   0  0  0  0  0  0  0  0  0  0  0  0
  103.0324  128.7257   41.2081 C   0  0  0  0  0  0  0  0  0  0  0  0
  102.2594  128.9356   40.2160 O   0  0  0  0  0  0  0  0  0  0  0  0
  103.0057  129.5026   42.2909 N   0  0  0  0  0  0  0  0  0  0  0  0
  102.0734  130.6278   42.3603 C   0  0  0  0  0  0  0  0  0  0  0  0
  103.8793  126.8488   39.9041 C   0  0  0  0  0  0  0  0  0  0  0  0
  1  2  1  6
  2  3  1  0
  3  4  2  0
  4  5  1  0
  5  6  2  0
  6  7  1  0
  7  8  2  0
  7  9  1  0
  9 10  1  0
 10 11  2  0
 10 12  1  0
 13 12  1  6
 14  9  1  1
  6  2  1  0
 12  5  1  0
M  END
$$$$
