caffeine
     RDKit          3D

 14 15  0  0  0  0  0  0  0  0999 V2000
  102.1849  130.8015   42.6314 C   0  0  0  0  0  0  0  0  0  0  0  0
  102.6313  130.4623   43.9480 N   0  0  0  0  0  0  0  0  0  0  0  0
  102.1802  130.9331   45.1249 C   0  0  0  0  0  0  0  0  0  0  0  0
  102.8711  130.3540   46.0999 N   0  0  0  0  0  0  0  0  0  0  0  0
  103.7607  129.5179   45.5826 C   0  0  0  0  0  0  0  0  0  0  0  0
  103.6144  129.5806   44.2040 C   0  0  0  0  0  0  0  0  0  0  0  0
  104.4380  128.7923   43.4467 C   0  0  0  0  0  0  0  0  0  0  0  0
  104.3058  128.8482   42.1862 O   0  0  0  0  0  0  0  0  0  0  0  0
  105.3471  127.9927   43.9927 N   0  0  0  0  0  0  0  0  0  0  0  0
  105.4491  127.9683   45.3322 C   0  0  0  0  0  0  0  0  0  0  0  0
  106.3363  127.1850   45.8068 O   0  0  0  0  0  0  0  0  0  0  0  0
  104.6772  128.7114   46.1251 N   0  0  0  0  0  0  0  0  0  0  0  0
  104.8376  128.6395   47.5773 C   0  0  0  0  0  0  0  0  0  0  0  0
  106.1948  127.1781   43.1505 C   0  0  0  0  0  0  0  0  0  0  0  0
  1  2  1  6
  2  3  1  0
  3  4  2  0
  4  5  1  0
  5  6  2  0
  6  7  1  0
  7  8  2  0
  7  9  1  0
  9 10  1  0
 10 11  2  0
 10 12  1  0
 13 12  1  6
 14  9  1  1
  6  2  1  0
 12  5  1  0
M  END
$$$$
