caffeine
     RDKit          3D

 14 15  0  0  0  0  0  0  0  0999 V2000
  105.2041  128.5336   48.1167 C   0  0  0  0  0  0  0  0  0  0  0  0
  104.3753  129.1402   47.1201 N   0  0  0  0  0  0  0  0  0  0  0  0
  103.3661  130.0121   47.2976 C   0  0  0  0  0  0  0  0  0  0  0  0
  102.8661  130.3215   46.1069 N   0  0  0  0  0  0  0  0  0  0  0  0
  103.5278  129.6701   45.1605 C   0  0  0  0  0  0  0  0  0  0  0  0
  104.4970  128.9104   45.8003 C   0  0  0  0  0  0  0  0  0  0  0  0
  105.3147  128.1424   45.0162 C   0  0  0  0  0  0  0  0  0  0  0  0
  106.2013  127.4473   45.5992 O   0  0  0  0  0  0  0  0  0  0  0  0
  105.1994  128.1131   43.6934 N   0  0  0  0  0  0  0  0  0  0  0  0
  104.2451  128.8668   43.1221 C   0  0  0  0  0  0  0  0  0  0  0  0
  104.1755  128.8038   41.8505 O   0  0  0  0  0  0  0  0  0  0  0  0
  103.4175  129.6358   43.8296 N   0  0  0  0  0  0  0  0  0  0  0  0
  102.3985  130.4336   43.1476 C   0  0  0  0  0  0  0  0  0  0  0  0
  106.0872  127.2856   42.9070 C   0  0  0  0  0  0  0  0  0  0  0  0
  1  2  1  6
  2  3  1  0
  3  4  2  0
  4  5  1  0
  5  6  2  0
  6  7  1  0
  7  8  2  0
  7  9  1  0
  9 10  1  0
 10 11  2  0
 10 12  1  0
 13 12  1  6
 14  9  1  1
  6  2  1  0
 12  5  1  0
M  END
$$$$
