caffeine
     RDKit          3D

 14 15  0  0  0  0  0  0  0  0999 V2000
  106.6096  126.9207   44.3667 C   0  0  0  0  0  0  0  0  0  0  0  0
  105.5858  127.9165   44.2771 N   0  0  0  0  0  0  0  0  0  0  0  0
  105.2502  128.8468   45.1893 C   0  0  0  0  0  0  0  0  0  0  0  0
  104.2465  129.5673   44.7026 N   0  0  0  0  0  0  0  0  0  0  0  0
  103.9230  129.1257   43.4949 C   0  0  0  0  0  0  0  0  0  0  0  0
  104.7759  128.0679   43.2138 C   0  0  0  0  0  0  0  0  0  0  0  0
  104.6286  127.4440   42.0045 C   0  0  0  0  0  0  0  0  0  0  0  0
  105.4074  126.4767   41.7457 O   0  0  0  0  0  0  0  0  0  0  0  0
  103.7106  127.8229   41.1225 N   0  0  0  0  0  0  0  0  0  0  0  0
  102.9092  128.8526   41.4425 C   0  0  0  0  0  0  0  0  0  0  0  0
  102.0452  129.1773   40.5628 O   0  0  0  0  0  0  0  0  0  0  0  0
  103.0019  129.5015   42.6032 N   0  0  0  0  0  0  0  0  0  0  0  0
  102.0990  130.6156   42.8919 C   0  0  0  0  0  0  0  0  0  0  0  0
  103.5932  127.1324   39.8573 C   0  0  0  0  0  0  0  0  0  0  0  0
  1  2  1  6
  2  3  1  0
  3  4  2  0
  4  5  1  0
  5  6  2  0
  6  7  1  0
  7  8  2  0
  7  9  1  0
  9 10  1  0
 10 11  2  0
 10 12  1  0
 13 12  1  6
 14  9  1  1
  6  2  1  0
 12  5  1  0
M  END
$$$$
