caffeine
     RDKit          3D

 14 15  0  0  0  0  0  0  0  0999 V2000
  106.3204  127.0602   43.2837 C   0  0  0  0  0  0  0  0  0  0  0  0
  105.1512  127.8796   43.3812 N   0  0  0  0  0  0  0  0  0  0  0  0
  104.3253  128.2690   42.3932 C   0  0  0  0  0  0  0  0  0  0  0  0
  103.3666  129.0211   42.9210 N   0  0  0  0  0  0  0  0  0  0  0  0
  103.5516  129.1288   44.2295 C   0  0  0  0  0  0  0  0  0  0  0  0
  104.6929  128.4005   44.5337 C   0  0  0  0  0  0  0  0  0  0  0  0
  105.0871  128.3650   45.8439 C   0  0  0  0  0  0  0  0  0  0  0  0
  106.1303  127.6997   46.1239 O   0  0  0  0  0  0  0  0  0  0  0  0
  104.4157  128.9968   46.7999 N   0  0  0  0  0  0  0  0  0  0  0  0
  103.3170  129.6883   46.4536 C   0  0  0  0  0  0  0  0  0  0  0  0
  102.7084  130.2766   47.4072 O   0  0  0  0  0  0  0  0  0  0  0  0
  102.8810  129.7619   45.1961 N   0  0  0  0  0  0  0  0  0  0  0  0
  101.6770  130.5317   44.8838 C   0  0  0  0  0  0  0  0  0  0  0  0
  104.8715  128.9299   48.1707 C   0  0  0  0  0  0  0  0  0  0  0  0
  1  2  1  6
  2  3  1  0
  3  4  2  0
  4  5  1  0
  5  6  2  0
  6  7  1  0
  7  8  2  0
  7  9  1  0
  9 10  1  0
 10 11  2  0
 10 12  1  0
 13 12  1  6
 14  9  1  1
  6  2  1  0
 12  5  1  0
M  END
$$$$
