caffeine
     RDKit          3D

 14 15  0  0  0  0  0  0  0  0999 V2000
  106.6421  126.9649   44.4184 C   0  0  0  0  0  0  0  0  0  0  0  0
  105.6119  127.9520   44.3070 N   0  0  0  0  0  0  0  0  0  0  0  0
  105.2713  128.9010   45.1978 C   0  0  0  0  0  0  0  0  0  0  0  0
  104.2626  129.6037   44.6956 N   0  0  0  0  0  0  0  0  0  0  0  0
  103.9407  129.1322   43.4989 C   0  0  0  0  0  0  0  0  0  0  0  0
  104.8001  128.0735   43.2413 C   0  0  0  0  0  0  0  0  0  0  0  0
  104.6555  127.4210   42.0470 C   0  0  0  0  0  0  0  0  0  0  0  0
  105.4402  126.4528   41.8097 O   0  0  0  0  0  0  0  0  0  0  0  0
  103.7343  127.7735   41.1575 N   0  0  0  0  0  0  0  0  0  0  0  0
  102.9267  128.8053   41.4544 C   0  0  0  0  0  0  0  0  0  0  0  0
  102.0598  129.1041   40.5684 O   0  0  0  0  0  0  0  0  0  0  0  0
  103.0164  129.4815   42.5997 N   0  0  0  0  0  0  0  0  0  0  0  0
  102.1067  130.5962   42.8635 C   0  0  0  0  0  0  0  0  0  0  0  0
  103.6200  127.0532   39.9086 C   0  0  0  0  0  0  0  0  0  0  0  0
  1  2  1  6
  2  3  1  0
  3  4  2  0
  4  5  1  0
  5  6  2  0
  6  7  1  0
  7  8  2  0
  7  9  1  0
  9 10  1  0
 10 11  2  0
 10 12  1  0
 13 12  1  6
 14  9  1  1
  6  2  1  0
 12  5  1  0
M  END
$$$$
