caffeine
     RDKit          3D

 14 15  0  0  0  0  0  0  0  0999 V2000
  106.6312  126.9183   44.3856 C   0  0  0  0  0  0  0  0  0  0  0  0
  105.6136  127.9173   44.2653 N   0  0  0  0  0  0  0  0  0  0  0  0
  105.2824  128.8760   45.1493 C   0  0  0  0  0  0  0  0  0  0  0  0
  104.2838  129.5879   44.6400 N   0  0  0  0  0  0  0  0  0  0  0  0
  103.9593  129.1130   43.4454 C   0  0  0  0  0  0  0  0  0  0  0  0
  104.8062  128.0423   43.1967 C   0  0  0  0  0  0  0  0  0  0  0  0
  104.6567  127.3841   42.0060 C   0  0  0  0  0  0  0  0  0  0  0  0
  105.4300  126.4049   41.7769 O   0  0  0  0  0  0  0  0  0  0  0  0
  103.7423  127.7424   41.1119 N   0  0  0  0  0  0  0  0  0  0  0  0
  102.9466  128.7860   41.4003 C   0  0  0  0  0  0  0  0  0  0  0  0
  102.0859  129.0899   40.5100 O   0  0  0  0  0  0  0  0  0  0  0  0
  103.0417  129.4681   42.5416 N   0  0  0  0  0  0  0  0  0  0  0  0
  102.1452  130.5956   42.7960 C   0  0  0  0  0  0  0  0  0  0  0  0
  103.6223  127.0158   39.8672 C   0  0  0  0  0  0  0  0  0  0  0  0
  1  2  1  6
  2  3  1  0
  3  4  2  0
  4  5  1  0
  5  6  2  0
  6  7  1  0
  7  8  2  0
  7  9  1  0
  9 10  1  0
 10 11  2  0
 10 12  1  0
 13 12  1  6
 14  9  1  1
  6  2  1  0
 12  5  1  0
M  END
$$$$
