
     RDKit          3D

 30 33  0  0  0  0  0  0  0  0999 V2000
   12.4129   10.1658   -5.1406 O   0  0  0  0  0  0  0  0  0  0  0  0
   12.2338    9.8484   -6.3442 C   0  0  0  0  0  0  0  0  0  0  0  0
   13.1981   10.2562   -7.3933 C   0  0  0  0  0  0  0  0  0  0  0  0
   13.4996    9.1550   -8.3724 C   0  0  0  0  0  0  0  0  0  0  0  0
   12.2835    8.3798   -8.7457 C   0  0  0  0  0  0  0  0  0  0  0  0
   12.3496    7.6714   -9.9344 C   0  0  0  0  0  0  0  0  0  0  0  0
   11.2666    6.9268  -10.3543 C   0  0  0  0  0  0  0  0  0  0  0  0
   10.0943    6.8728   -9.5975 C   0  0  0  0  0  0  0  0  0  0  0  0
    9.0441    6.1145  -10.0630 O   0  0  0  0  0  0  0  0  0  0  0  0
    7.7388    6.1121   -9.5491 C   0  0  0  0  0  0  0  0  0  0  0  0
    7.0401    4.8748  -10.0820 C   0  0  0  0  0  0  0  0  0  0  0  0
    6.4815    5.1720  -11.4485 C   0  0  0  0  0  0  0  0  0  0  0  0
    6.8288    4.0439  -12.3948 C   0  0  0  0  0  0  0  0  0  0  0  0
    6.0300    4.0377  -13.5917 N   0  0  0  0  0  0  0  0  0  0  0  0
    6.0642    2.7070  -14.1179 C   0  0  0  0  0  0  0  0  0  0  0  0
    5.3720    2.5704  -15.4305 C   0  0  0  0  0  0  0  0  0  0  0  0
    5.7325    3.6699  -16.3047 N   0  0  0  0  0  0  0  0  0  0  0  0
    6.1209    3.5008  -17.6413 C   0  0  0  0  0  0  0  0  0  0  0  0
    6.1209    2.2132  -18.1733 C   0  0  0  0  0  0  0  0  0  0  0  0
    6.4901    1.9612  -19.4814 C   0  0  0  0  0  0  0  0  0  0  0  0
    6.8818    2.9895  -20.3346 C   0  0  0  0  0  0  0  0  0  0  0  0
    6.8801    4.2599  -19.8041 C   0  0  0  0  0  0  0  0  0  0  0  0
    7.3692    5.6057  -20.8439 Cl  0  0  0  0  0  0  0  0  0  0  0  0
    6.5089    4.5201  -18.4858 C   0  0  0  0  0  0  0  0  0  0  0  0
    6.5251    6.1562  -17.8631 Cl  0  0  0  0  0  0  0  0  0  0  0  0
    5.6899    5.0187  -15.7704 C   0  0  0  0  0  0  0  0  0  0  0  0
    6.5421    5.0271  -14.5167 C   0  0  0  0  0  0  0  0  0  0  0  0
   10.0824    7.5921   -8.4303 C   0  0  0  0  0  0  0  0  0  0  0  0
   11.1472    8.3472   -7.9803 C   0  0  0  0  0  0  0  0  0  0  0  0
   11.1060    9.0877   -6.7577 N   0  0  0  0  0  0  0  0  0  0  0  0
  1  2  2  0
  3  2  1  1
  3  4  1  0
  4  5  1  1
  5  6  2  0
  6  7  1  0
  7  8  2  0
  8  9  1  0
 10  9  1  1
 11 10  1  6
 11 12  1  0
 12 13  1  1
 13 14  1  6
 15 14  1  6
 15 16  1  0
 16 17  1  6
 17 18  1  0
 18 19  2  0
 19 20  1  0
 20 21  2  0
 21 22  1  0
 22 23  1  0
 22 24  2  0
 24 25  1  0
 26 17  1  6
 26 27  1  0
  8 28  1  0
 28 29  2  0
 29 30  1  0
 30  2  1  0
 29  5  1  0
 27 14  1  1
 24 18  1  0
M  END
$$$$
