
     RDKit          3D

 30 33  0  0  0  0  0  0  0  0999 V2000
   14.4165   10.0759   -7.0646 O   0  0  0  0  0  0  0  0  0  0  0  0
   13.4486    9.2772   -6.9817 C   0  0  0  0  0  0  0  0  0  0  0  0
   12.9595    8.8038   -5.6651 C   0  0  0  0  0  0  0  0  0  0  0  0
   11.4586    8.7870   -5.5689 C   0  0  0  0  0  0  0  0  0  0  0  0
   10.8161    8.2927   -6.8188 C   0  0  0  0  0  0  0  0  0  0  0  0
    9.5208    7.8170   -6.6948 C   0  0  0  0  0  0  0  0  0  0  0  0
    8.8524    7.3405   -7.8038 C   0  0  0  0  0  0  0  0  0  0  0  0
    9.4615    7.3282   -9.0603 C   0  0  0  0  0  0  0  0  0  0  0  0
    8.7492    6.8419  -10.1329 O   0  0  0  0  0  0  0  0  0  0  0  0
    7.3615    6.6402  -10.1766 C   0  0  0  0  0  0  0  0  0  0  0  0
    6.9792    6.4057  -11.6264 C   0  0  0  0  0  0  0  0  0  0  0  0
    7.4075    5.0204  -12.0330 C   0  0  0  0  0  0  0  0  0  0  0  0
    6.2957    4.3544  -12.8134 C   0  0  0  0  0  0  0  0  0  0  0  0
    6.7714    3.4179  -13.7968 N   0  0  0  0  0  0  0  0  0  0  0  0
    7.5855    4.1487  -14.7200 C   0  0  0  0  0  0  0  0  0  0  0  0
    8.0587    3.3290  -15.8710 C   0  0  0  0  0  0  0  0  0  0  0  0
    6.9720    2.5234  -16.3937 N   0  0  0  0  0  0  0  0  0  0  0  0
    6.6687    2.4251  -17.7592 C   0  0  0  0  0  0  0  0  0  0  0  0
    6.1520    1.2231  -18.2381 C   0  0  0  0  0  0  0  0  0  0  0  0
    5.8272    1.0444  -19.5698 C   0  0  0  0  0  0  0  0  0  0  0  0
    6.0023    2.0644  -20.5014 C   0  0  0  0  0  0  0  0  0  0  0  0
    6.5131    3.2500  -20.0231 C   0  0  0  0  0  0  0  0  0  0  0  0
    6.7565    4.5812  -21.1633 Cl  0  0  0  0  0  0  0  0  0  0  0  0
    6.8425    3.4360  -18.6813 C   0  0  0  0  0  0  0  0  0  0  0  0
    7.4891    4.9657  -18.1275 Cl  0  0  0  0  0  0  0  0  0  0  0  0
    6.1528    1.7779  -15.4559 C   0  0  0  0  0  0  0  0  0  0  0  0
    5.6418    2.7677  -14.4278 C   0  0  0  0  0  0  0  0  0  0  0  0
   10.7435    7.8101   -9.1267 C   0  0  0  0  0  0  0  0  0  0  0  0
   11.4415    8.2941   -8.0381 C   0  0  0  0  0  0  0  0  0  0  0  0
   12.7787    8.7908   -8.1377 N   0  0  0  0  0  0  0  0  0  0  0  0
  1  2  2  0
  3  2  1  1
  3  4  1  0
  4  5  1  1
  5  6  2  0
  6  7  1  0
  7  8  2  0
  8  9  1  0
 10  9  1  1
 11 10  1  6
 11 12  1  0
 12 13  1  1
 13 14  1  6
 15 14  1  6
 15 16  1  0
 16 17  1  6
 17 18  1  0
 18 19  2  0
 19 20  1  0
 20 21  2  0
 21 22  1  0
 22 23  1  0
 22 24  2  0
 24 25  1  0
 26 17  1  6
 26 27  1  0
  8 28  1  0
 28 29  2  0
 29 30  1  0
 30  2  1  0
 29  5  1  0
 27 14  1  1
 24 18  1  0
M  END
$$$$
