
     RDKit          3D

 30 33  0  0  0  0  0  0  0  0999 V2000
    5.6132    1.2616  -21.6923 O   0  0  0  0  0  0  0  0  0  0  0  0
    5.0518    1.1696  -20.5707 C   0  0  0  0  0  0  0  0  0  0  0  0
    4.0800    0.0864  -20.2894 C   0  0  0  0  0  0  0  0  0  0  0  0
    4.2685   -0.5323  -18.9316 C   0  0  0  0  0  0  0  0  0  0  0  0
    4.5699    0.4824  -17.8834 C   0  0  0  0  0  0  0  0  0  0  0  0
    4.3187    0.1042  -16.5745 C   0  0  0  0  0  0  0  0  0  0  0  0
    4.5700    0.9845  -15.5423 C   0  0  0  0  0  0  0  0  0  0  0  0
    5.0774    2.2610  -15.7933 C   0  0  0  0  0  0  0  0  0  0  0  0
    5.3098    3.0990  -14.7263 O   0  0  0  0  0  0  0  0  0  0  0  0
    5.7916    4.4144  -14.8021 C   0  0  0  0  0  0  0  0  0  0  0  0
    5.6768    5.0236  -13.4169 C   0  0  0  0  0  0  0  0  0  0  0  0
    6.9308    4.7235  -12.6390 C   0  0  0  0  0  0  0  0  0  0  0  0
    7.0670    5.7067  -11.4974 C   0  0  0  0  0  0  0  0  0  0  0  0
    8.2884    5.5502  -10.7530 N   0  0  0  0  0  0  0  0  0  0  0  0
    8.0340    6.0041   -9.4195 C   0  0  0  0  0  0  0  0  0  0  0  0
    9.2473    6.0120   -8.5542 C   0  0  0  0  0  0  0  0  0  0  0  0
   10.3734    6.5750   -9.2741 N   0  0  0  0  0  0  0  0  0  0  0  0
   11.2271    7.5487   -8.7365 C   0  0  0  0  0  0  0  0  0  0  0  0
   12.3243    7.9575   -9.4915 C   0  0  0  0  0  0  0  0  0  0  0  0
   13.2135    8.9119   -9.0340 C   0  0  0  0  0  0  0  0  0  0  0  0
   13.0532    9.5135   -7.7886 C   0  0  0  0  0  0  0  0  0  0  0  0
   11.9676    9.1061   -7.0465 C   0  0  0  0  0  0  0  0  0  0  0  0
   11.7148    9.8378   -5.4551 Cl  0  0  0  0  0  0  0  0  0  0  0  0
   11.0676    8.1442   -7.5026 C   0  0  0  0  0  0  0  0  0  0  0  0
    9.7033    7.6634   -6.5165 Cl  0  0  0  0  0  0  0  0  0  0  0  0
   10.6331    6.1075  -10.6233 C   0  0  0  0  0  0  0  0  0  0  0  0
    9.3494    6.2848  -11.4099 C   0  0  0  0  0  0  0  0  0  0  0  0
    5.3078    2.5837  -17.1058 C   0  0  0  0  0  0  0  0  0  0  0  0
    5.0679    1.7283  -18.1627 C   0  0  0  0  0  0  0  0  0  0  0  0
    5.3181    2.0927  -19.5226 N   0  0  0  0  0  0  0  0  0  0  0  0
  1  2  2  0
  3  2  1  1
  3  4  1  0
  4  5  1  1
  5  6  2  0
  6  7  1  0
  7  8  2  0
  8  9  1  0
 10  9  1  1
 11 10  1  6
 11 12  1  0
 12 13  1  1
 13 14  1  6
 15 14  1  6
 15 16  1  0
 16 17  1  6
 17 18  1  0
 18 19  2  0
 19 20  1  0
 20 21  2  0
 21 22  1  0
 22 23  1  0
 22 24  2  0
 24 25  1  0
 26 17  1  6
 26 27  1  0
  8 28  1  0
 28 29  2  0
 29 30  1  0
 30  2  1  0
 29  5  1  0
 27 14  1  1
 24 18  1  0
M  END
$$$$
