
     RDKit          3D

 30 33  0  0  0  0  0  0  0  0999 V2000
   13.9205    8.9579  -19.9701 O   0  0  0  0  0  0  0  0  0  0  0  0
   13.9765    8.0876  -19.0640 C   0  0  0  0  0  0  0  0  0  0  0  0
   15.2777    7.6459  -18.5084 C   0  0  0  0  0  0  0  0  0  0  0  0
   15.2599    7.5106  -17.0106 C   0  0  0  0  0  0  0  0  0  0  0  0
   13.9962    6.8995  -16.5117 C   0  0  0  0  0  0  0  0  0  0  0  0
   14.0490    6.3259  -15.2517 C   0  0  0  0  0  0  0  0  0  0  0  0
   12.9224    5.7378  -14.7144 C   0  0  0  0  0  0  0  0  0  0  0  0
   11.7190    5.7091  -15.4222 C   0  0  0  0  0  0  0  0  0  0  0  0
   10.6259    5.1095  -14.8390 O   0  0  0  0  0  0  0  0  0  0  0  0
    9.2940    5.2370  -15.2609 C   0  0  0  0  0  0  0  0  0  0  0  0
    8.4364    4.4070  -14.3236 C   0  0  0  0  0  0  0  0  0  0  0  0
    8.0557    5.2434  -13.1305 C   0  0  0  0  0  0  0  0  0  0  0  0
    8.7569    4.7170  -11.8976 C   0  0  0  0  0  0  0  0  0  0  0  0
    8.6372    5.5878  -10.7584 N   0  0  0  0  0  0  0  0  0  0  0  0
    9.0251    6.8984  -11.1833 C   0  0  0  0  0  0  0  0  0  0  0  0
    9.0645    7.8938  -10.0750 C   0  0  0  0  0  0  0  0  0  0  0  0
    9.7142    7.3230   -8.9108 N   0  0  0  0  0  0  0  0  0  0  0  0
   10.7106    7.9839   -8.1785 C   0  0  0  0  0  0  0  0  0  0  0  0
   11.3263    9.0949   -8.7508 C   0  0  0  0  0  0  0  0  0  0  0  0
   12.3170    9.8019   -8.0954 C   0  0  0  0  0  0  0  0  0  0  0  0
   12.7490    9.4343   -6.8237 C   0  0  0  0  0  0  0  0  0  0  0  0
   12.1374    8.3359   -6.2627 C   0  0  0  0  0  0  0  0  0  0  0  0
   12.6472    7.8235   -4.6474 Cl  0  0  0  0  0  0  0  0  0  0  0  0
   11.1379    7.6191   -6.9188 C   0  0  0  0  0  0  0  0  0  0  0  0
   10.3939    6.2290   -6.1577 Cl  0  0  0  0  0  0  0  0  0  0  0  0
    9.3136    5.9968   -8.4780 C   0  0  0  0  0  0  0  0  0  0  0  0
    9.4523    5.0778   -9.6755 C   0  0  0  0  0  0  0  0  0  0  0  0
   11.7222    6.2909  -16.6638 C   0  0  0  0  0  0  0  0  0  0  0  0
   12.8302    6.8877  -17.2317 C   0  0  0  0  0  0  0  0  0  0  0  0
   12.8037    7.4871  -18.5297 N   0  0  0  0  0  0  0  0  0  0  0  0
  1  2  2  0
  3  2  1  1
  3  4  1  0
  4  5  1  1
  5  6  2  0
  6  7  1  0
  7  8  2  0
  8  9  1  0
 10  9  1  1
 11 10  1  6
 11 12  1  0
 12 13  1  1
 13 14  1  6
 15 14  1  6
 15 16  1  0
 16 17  1  6
 17 18  1  0
 18 19  2  0
 19 20  1  0
 20 21  2  0
 21 22  1  0
 22 23  1  0
 22 24  2  0
 24 25  1  0
 26 17  1  6
 26 27  1  0
  8 28  1  0
 28 29  2  0
 29 30  1  0
 30  2  1  0
 29  5  1  0
 27 14  1  1
 24 18  1  0
M  END
$$$$
