
     RDKit          3D

 30 33  0  0  0  0  0  0  0  0999 V2000
    5.6822    0.9841  -21.6522 O   0  0  0  0  0  0  0  0  0  0  0  0
    6.2393    1.7708  -20.8444 C   0  0  0  0  0  0  0  0  0  0  0  0
    7.1827    2.8110  -21.3186 C   0  0  0  0  0  0  0  0  0  0  0  0
    6.9761    4.1401  -20.6458 C   0  0  0  0  0  0  0  0  0  0  0  0
    6.6990    4.0009  -19.1887 C   0  0  0  0  0  0  0  0  0  0  0  0
    6.9384    5.1213  -18.4098 C   0  0  0  0  0  0  0  0  0  0  0  0
    6.7079    5.0777  -17.0502 C   0  0  0  0  0  0  0  0  0  0  0  0
    6.2337    3.9156  -16.4381 C   0  0  0  0  0  0  0  0  0  0  0  0
    6.0210    3.9271  -15.0782 O   0  0  0  0  0  0  0  0  0  0  0  0
    5.7315    5.0576  -14.2996 C   0  0  0  0  0  0  0  0  0  0  0  0
    5.5884    4.5969  -12.8607 C   0  0  0  0  0  0  0  0  0  0  0  0
    6.9524    4.5245  -12.2265 C   0  0  0  0  0  0  0  0  0  0  0  0
    6.9426    5.2785  -10.9150 C   0  0  0  0  0  0  0  0  0  0  0  0
    8.2024    5.2318  -10.2214 N   0  0  0  0  0  0  0  0  0  0  0  0
    7.9137    5.1280   -8.8232 C   0  0  0  0  0  0  0  0  0  0  0  0
    9.1276    5.1872   -7.9610 C   0  0  0  0  0  0  0  0  0  0  0  0
   10.0098    6.2476   -8.4087 N   0  0  0  0  0  0  0  0  0  0  0  0
   10.5934    7.1854   -7.5450 C   0  0  0  0  0  0  0  0  0  0  0  0
    9.9921    7.4113   -6.3087 C   0  0  0  0  0  0  0  0  0  0  0  0
   10.5041    8.3187   -5.4001 C   0  0  0  0  0  0  0  0  0  0  0  0
   11.6528    9.0543   -5.6799 C   0  0  0  0  0  0  0  0  0  0  0  0
   12.2431    8.8274   -6.9026 C   0  0  0  0  0  0  0  0  0  0  0  0
   13.7062    9.7351   -7.3113 Cl  0  0  0  0  0  0  0  0  0  0  0  0
   11.7313    7.9137   -7.8229 C   0  0  0  0  0  0  0  0  0  0  0  0
   12.5232    7.6647   -9.3643 Cl  0  0  0  0  0  0  0  0  0  0  0  0
   10.3065    6.3460   -9.8260 C   0  0  0  0  0  0  0  0  0  0  0  0
    8.9787    6.4079  -10.5547 C   0  0  0  0  0  0  0  0  0  0  0  0
    6.0137    2.8365  -17.2550 C   0  0  0  0  0  0  0  0  0  0  0  0
    6.2335    2.8451  -18.6180 C   0  0  0  0  0  0  0  0  0  0  0  0
    5.9949    1.7035  -19.4454 N   0  0  0  0  0  0  0  0  0  0  0  0
  1  2  2  0
  3  2  1  1
  3  4  1  0
  4  5  1  1
  5  6  2  0
  6  7  1  0
  7  8  2  0
  8  9  1  0
 10  9  1  1
 11 10  1  6
 11 12  1  0
 12 13  1  1
 13 14  1  6
 15 14  1  6
 15 16  1  0
 16 17  1  6
 17 18  1  0
 18 19  2  0
 19 20  1  0
 20 21  2  0
 21 22  1  0
 22 23  1  0
 22 24  2  0
 24 25  1  0
 26 17  1  6
 26 27  1  0
  8 28  1  0
 28 29  2  0
 29 30  1  0
 30  2  1  0
 29  5  1  0
 27 14  1  1
 24 18  1  0
M  END
$$$$
