
     RDKit          3D

 30 33  0  0  0  0  0  0  0  0999 V2000
   14.1805   10.5893   -7.1089 O   0  0  0  0  0  0  0  0  0  0  0  0
   13.2778    9.8543   -6.6330 C   0  0  0  0  0  0  0  0  0  0  0  0
   12.7132   10.1122   -5.2871 C   0  0  0  0  0  0  0  0  0  0  0  0
   11.2162    9.9739   -5.2430 C   0  0  0  0  0  0  0  0  0  0  0  0
   10.7307    8.8123   -6.0393 C   0  0  0  0  0  0  0  0  0  0  0  0
    9.4728    8.3304   -5.7153 C   0  0  0  0  0  0  0  0  0  0  0  0
    8.9476    7.2565   -6.4041 C   0  0  0  0  0  0  0  0  0  0  0  0
    9.6656    6.6401   -7.4309 C   0  0  0  0  0  0  0  0  0  0  0  0
    9.0943    5.5724   -8.0853 O   0  0  0  0  0  0  0  0  0  0  0  0
    7.7824    5.5154   -8.5790 C   0  0  0  0  0  0  0  0  0  0  0  0
    7.6224    4.1894   -9.2995 C   0  0  0  0  0  0  0  0  0  0  0  0
    6.6634    4.3627  -10.4475 C   0  0  0  0  0  0  0  0  0  0  0  0
    7.4328    4.7093  -11.7031 C   0  0  0  0  0  0  0  0  0  0  0  0
    6.5969    4.8338  -12.8677 N   0  0  0  0  0  0  0  0  0  0  0  0
    6.1546    3.5176  -13.2154 C   0  0  0  0  0  0  0  0  0  0  0  0
    5.3682    3.4711  -14.4803 C   0  0  0  0  0  0  0  0  0  0  0  0
    6.0103    4.2776  -15.5004 N   0  0  0  0  0  0  0  0  0  0  0  0
    6.2290    3.8354  -16.8128 C   0  0  0  0  0  0  0  0  0  0  0  0
    5.6486    2.6335  -17.2122 C   0  0  0  0  0  0  0  0  0  0  0  0
    5.8154    2.1279  -18.4880 C   0  0  0  0  0  0  0  0  0  0  0  0
    6.5765    2.8009  -19.4402 C   0  0  0  0  0  0  0  0  0  0  0  0
    7.1477    3.9880  -19.0406 C   0  0  0  0  0  0  0  0  0  0  0  0
    8.1259    4.8860  -20.2104 Cl  0  0  0  0  0  0  0  0  0  0  0  0
    6.9831    4.5027  -17.7555 C   0  0  0  0  0  0  0  0  0  0  0  0
    7.7329    6.0180  -17.3009 Cl  0  0  0  0  0  0  0  0  0  0  0  0
    6.4512    5.6144  -15.1468 C   0  0  0  0  0  0  0  0  0  0  0  0
    7.3420    5.4806  -13.9276 C   0  0  0  0  0  0  0  0  0  0  0  0
   10.9046    7.1566   -7.7105 C   0  0  0  0  0  0  0  0  0  0  0  0
   11.4605    8.2291   -7.0420 C   0  0  0  0  0  0  0  0  0  0  0  0
   12.7561    8.7466   -7.3558 N   0  0  0  0  0  0  0  0  0  0  0  0
  1  2  2  0
  3  2  1  1
  3  4  1  0
  4  5  1  1
  5  6  2  0
  6  7  1  0
  7  8  2  0
  8  9  1  0
 10  9  1  1
 11 10  1  6
 11 12  1  0
 12 13  1  1
 13 14  1  6
 15 14  1  6
 15 16  1  0
 16 17  1  6
 17 18  1  0
 18 19  2  0
 19 20  1  0
 20 21  2  0
 21 22  1  0
 22 23  1  0
 22 24  2  0
 24 25  1  0
 26 17  1  6
 26 27  1  0
  8 28  1  0
 28 29  2  0
 29 30  1  0
 30  2  1  0
 29  5  1  0
 27 14  1  1
 24 18  1  0
M  END
$$$$
