
     RDKit          3D

 30 33  0  0  0  0  0  0  0  0999 V2000
    5.1764    1.2778  -21.5021 O   0  0  0  0  0  0  0  0  0  0  0  0
    5.9722    1.9025  -20.7550 C   0  0  0  0  0  0  0  0  0  0  0  0
    7.2080    2.5150  -21.2977 C   0  0  0  0  0  0  0  0  0  0  0  0
    7.4673    3.8927  -20.7529 C   0  0  0  0  0  0  0  0  0  0  0  0
    7.1700    3.9915  -19.2965 C   0  0  0  0  0  0  0  0  0  0  0  0
    7.7793    5.0333  -18.6163 C   0  0  0  0  0  0  0  0  0  0  0  0
    7.5574    5.1970  -17.2644 C   0  0  0  0  0  0  0  0  0  0  0  0
    6.7230    4.3252  -16.5619 C   0  0  0  0  0  0  0  0  0  0  0  0
    6.5365    4.5345  -15.2143 O   0  0  0  0  0  0  0  0  0  0  0  0
    5.7320    3.7609  -14.3644 C   0  0  0  0  0  0  0  0  0  0  0  0
    5.6523    4.4804  -13.0306 C   0  0  0  0  0  0  0  0  0  0  0  0
    7.0124    4.4760  -12.3842 C   0  0  0  0  0  0  0  0  0  0  0  0
    7.0084    5.4023  -11.1881 C   0  0  0  0  0  0  0  0  0  0  0  0
    8.2292    5.3566  -10.4278 N   0  0  0  0  0  0  0  0  0  0  0  0
    7.9533    5.9324   -9.1467 C   0  0  0  0  0  0  0  0  0  0  0  0
    9.1602    6.0620   -8.2823 C   0  0  0  0  0  0  0  0  0  0  0  0
   10.2739    6.5842   -9.0506 N   0  0  0  0  0  0  0  0  0  0  0  0
   11.0954    7.6312   -8.6092 C   0  0  0  0  0  0  0  0  0  0  0  0
   12.1153    8.0724   -9.4496 C   0  0  0  0  0  0  0  0  0  0  0  0
   12.9684    9.0988   -9.0896 C   0  0  0  0  0  0  0  0  0  0  0  0
   12.8476    9.7443   -7.8617 C   0  0  0  0  0  0  0  0  0  0  0  0
   11.8384    9.3046   -7.0351 C   0  0  0  0  0  0  0  0  0  0  0  0
   11.6386   10.0894   -5.4616 Cl  0  0  0  0  0  0  0  0  0  0  0  0
   10.9750    8.2701   -7.3927 C   0  0  0  0  0  0  0  0  0  0  0  0
    9.7081    7.7510   -6.3017 Cl  0  0  0  0  0  0  0  0  0  0  0  0
   10.5557    5.9934  -10.3460 C   0  0  0  0  0  0  0  0  0  0  0  0
    9.2724    6.0538  -11.1506 C   0  0  0  0  0  0  0  0  0  0  0  0
    6.1457    3.3120  -17.2832 C   0  0  0  0  0  0  0  0  0  0  0  0
    6.3456    3.1188  -18.6356 C   0  0  0  0  0  0  0  0  0  0  0  0
    5.7295    2.0523  -19.3622 N   0  0  0  0  0  0  0  0  0  0  0  0
  1  2  2  0
  3  2  1  1
  3  4  1  0
  4  5  1  1
  5  6  2  0
  6  7  1  0
  7  8  2  0
  8  9  1  0
 10  9  1  1
 11 10  1  6
 11 12  1  0
 12 13  1  1
 13 14  1  6
 15 14  1  6
 15 16  1  0
 16 17  1  6
 17 18  1  0
 18 19  2  0
 19 20  1  0
 20 21  2  0
 21 22  1  0
 22 23  1  0
 22 24  2  0
 24 25  1  0
 26 17  1  6
 26 27  1  0
  8 28  1  0
 28 29  2  0
 29 30  1  0
 30  2  1  0
 29  5  1  0
 27 14  1  1
 24 18  1  0
M  END
$$$$
