
     RDKit          3D

 30 33  0  0  0  0  0  0  0  0999 V2000
   12.3009    9.7660   -3.6832 O   0  0  0  0  0  0  0  0  0  0  0  0
   12.1744    9.5186   -4.9097 C   0  0  0  0  0  0  0  0  0  0  0  0
   13.1691   10.0071   -5.8940 C   0  0  0  0  0  0  0  0  0  0  0  0
   13.5307    8.9729   -6.9244 C   0  0  0  0  0  0  0  0  0  0  0  0
   12.3462    8.1991   -7.3907 C   0  0  0  0  0  0  0  0  0  0  0  0
   12.4724    7.5652   -8.6161 C   0  0  0  0  0  0  0  0  0  0  0  0
   11.4220    6.8271   -9.1217 C   0  0  0  0  0  0  0  0  0  0  0  0
   10.2232    6.7055   -8.4161 C   0  0  0  0  0  0  0  0  0  0  0  0
    9.2076    5.9572   -8.9668 O   0  0  0  0  0  0  0  0  0  0  0  0
    7.9066    5.8329   -8.4570 C   0  0  0  0  0  0  0  0  0  0  0  0
    7.2403    4.6777   -9.1813 C   0  0  0  0  0  0  0  0  0  0  0  0
    6.6377    5.1813  -10.4663 C   0  0  0  0  0  0  0  0  0  0  0  0
    7.1669    4.3686  -11.6274 C   0  0  0  0  0  0  0  0  0  0  0  0
    6.3157    4.4098  -12.7867 N   0  0  0  0  0  0  0  0  0  0  0  0
    6.6092    3.2485  -13.5704 C   0  0  0  0  0  0  0  0  0  0  0  0
    5.8832    3.2118  -14.8713 C   0  0  0  0  0  0  0  0  0  0  0  0
    5.9369    4.5114  -15.5127 N   0  0  0  0  0  0  0  0  0  0  0  0
    6.2683    4.6952  -16.8626 C   0  0  0  0  0  0  0  0  0  0  0  0
    6.2404    3.5883  -17.7082 C   0  0  0  0  0  0  0  0  0  0  0  0
    6.5535    3.6846  -19.0512 C   0  0  0  0  0  0  0  0  0  0  0  0
    6.9138    4.9007  -19.6257 C   0  0  0  0  0  0  0  0  0  0  0  0
    6.9398    5.9912  -18.7860 C   0  0  0  0  0  0  0  0  0  0  0  0
    7.3910    7.5629  -19.4628 Cl  0  0  0  0  0  0  0  0  0  0  0  0
    6.6251    5.9003  -17.4309 C   0  0  0  0  0  0  0  0  0  0  0  0
    6.6746    7.3205  -16.4085 Cl  0  0  0  0  0  0  0  0  0  0  0  0
    5.6317    5.6864  -14.7173 C   0  0  0  0  0  0  0  0  0  0  0  0
    6.5379    5.6487  -13.5028 C   0  0  0  0  0  0  0  0  0  0  0  0
   10.1518    7.3526   -7.2094 C   0  0  0  0  0  0  0  0  0  0  0  0
   11.1826    8.0990   -6.6737 C   0  0  0  0  0  0  0  0  0  0  0  0
   11.0794    8.7634   -5.4117 N   0  0  0  0  0  0  0  0  0  0  0  0
  1  2  2  0
  3  2  1  1
  3  4  1  0
  4  5  1  1
  5  6  2  0
  6  7  1  0
  7  8  2  0
  8  9  1  0
 10  9  1  1
 11 10  1  6
 11 12  1  0
 12 13  1  1
 13 14  1  6
 15 14  1  6
 15 16  1  0
 16 17  1  6
 17 18  1  0
 18 19  2  0
 19 20  1  0
 20 21  2  0
 21 22  1  0
 22 23  1  0
 22 24  2  0
 24 25  1  0
 26 17  1  6
 26 27  1  0
  8 28  1  0
 28 29  2  0
 29 30  1  0
 30  2  1  0
 29  5  1  0
 27 14  1  1
 24 18  1  0
M  END
$$$$
