
     RDKit          3D

 30 33  0  0  0  0  0  0  0  0999 V2000
    5.4497    1.6064  -21.3895 O   0  0  0  0  0  0  0  0  0  0  0  0
    4.9496    1.6191  -20.2357 C   0  0  0  0  0  0  0  0  0  0  0  0
    3.9577    0.5985  -19.8218 C   0  0  0  0  0  0  0  0  0  0  0  0
    4.2007    0.0743  -18.4332 C   0  0  0  0  0  0  0  0  0  0  0  0
    4.5963    1.1505  -17.4822 C   0  0  0  0  0  0  0  0  0  0  0  0
    4.4062    0.8795  -16.1370 C   0  0  0  0  0  0  0  0  0  0  0  0
    4.7464    1.8226  -15.1890 C   0  0  0  0  0  0  0  0  0  0  0  0
    5.2835    3.0563  -15.5625 C   0  0  0  0  0  0  0  0  0  0  0  0
    5.6052    3.9605  -14.5758 O   0  0  0  0  0  0  0  0  0  0  0  0
    5.5203    3.7360  -13.1937 C   0  0  0  0  0  0  0  0  0  0  0  0
    5.9836    5.0015  -12.4958 C   0  0  0  0  0  0  0  0  0  0  0  0
    7.0598    4.6526  -11.5019 C   0  0  0  0  0  0  0  0  0  0  0  0
    7.5166    5.9058  -10.7882 C   0  0  0  0  0  0  0  0  0  0  0  0
    8.3000    5.6380   -9.6113 N   0  0  0  0  0  0  0  0  0  0  0  0
    8.4118    6.8675   -8.8870 C   0  0  0  0  0  0  0  0  0  0  0  0
    9.3001    6.7743   -7.6941 C   0  0  0  0  0  0  0  0  0  0  0  0
   10.5141    6.0545   -8.0275 N   0  0  0  0  0  0  0  0  0  0  0  0
   11.7980    6.5012   -7.6838 C   0  0  0  0  0  0  0  0  0  0  0  0
   12.8782    5.6514   -7.9119 C   0  0  0  0  0  0  0  0  0  0  0  0
   14.1750    6.0157   -7.6015 C   0  0  0  0  0  0  0  0  0  0  0  0
   14.4645    7.2577   -7.0424 C   0  0  0  0  0  0  0  0  0  0  0  0
   13.3937    8.0936   -6.8190 C   0  0  0  0  0  0  0  0  0  0  0  0
   13.7033    9.6852   -6.1099 Cl  0  0  0  0  0  0  0  0  0  0  0  0
   12.0838    7.7317   -7.1300 C   0  0  0  0  0  0  0  0  0  0  0  0
   10.7593    8.8349   -6.8244 Cl  0  0  0  0  0  0  0  0  0  0  0  0
   10.3971    4.8045   -8.7557 C   0  0  0  0  0  0  0  0  0  0  0  0
    9.5826    5.0906  -10.0016 C   0  0  0  0  0  0  0  0  0  0  0  0
    5.4506    3.2725  -16.9061 C   0  0  0  0  0  0  0  0  0  0  0  0
    5.1214    2.3519  -17.8810 C   0  0  0  0  0  0  0  0  0  0  0  0
    5.3071    2.6054  -19.2761 N   0  0  0  0  0  0  0  0  0  0  0  0
  1  2  2  0
  3  2  1  1
  3  4  1  0
  4  5  1  1
  5  6  2  0
  6  7  1  0
  7  8  2  0
  8  9  1  0
 10  9  1  1
 11 10  1  6
 11 12  1  0
 12 13  1  1
 13 14  1  6
 15 14  1  6
 15 16  1  0
 16 17  1  6
 17 18  1  0
 18 19  2  0
 19 20  1  0
 20 21  2  0
 21 22  1  0
 22 23  1  0
 22 24  2  0
 24 25  1  0
 26 17  1  6
 26 27  1  0
  8 28  1  0
 28 29  2  0
 29 30  1  0
 30  2  1  0
 29  5  1  0
 27 14  1  1
 24 18  1  0
M  END
$$$$
