
     RDKit          3D

 30 33  0  0  0  0  0  0  0  0999 V2000
   15.3483    8.6132  -11.8620 O   0  0  0  0  0  0  0  0  0  0  0  0
   14.3079    8.7605  -11.1709 C   0  0  0  0  0  0  0  0  0  0  0  0
   14.1991    9.8555  -10.1779 C   0  0  0  0  0  0  0  0  0  0  0  0
   12.8609   10.5413  -10.2059 C   0  0  0  0  0  0  0  0  0  0  0  0
   11.7350    9.5804  -10.3746 C   0  0  0  0  0  0  0  0  0  0  0  0
   10.4861   10.0233   -9.9705 C   0  0  0  0  0  0  0  0  0  0  0  0
    9.3887    9.1958  -10.0923 C   0  0  0  0  0  0  0  0  0  0  0  0
    9.5135    7.9089  -10.6196 C   0  0  0  0  0  0  0  0  0  0  0  0
    8.3861    7.1254  -10.7186 O   0  0  0  0  0  0  0  0  0  0  0  0
    8.0954    6.2282  -11.7571 C   0  0  0  0  0  0  0  0  0  0  0  0
    6.9813    5.3172  -11.2756 C   0  0  0  0  0  0  0  0  0  0  0  0
    7.5338    4.3564  -10.2561 C   0  0  0  0  0  0  0  0  0  0  0  0
    7.1978    4.8451   -8.8644 C   0  0  0  0  0  0  0  0  0  0  0  0
    8.3591    5.1546   -8.0732 N   0  0  0  0  0  0  0  0  0  0  0  0
    8.7621    3.9463   -7.4201 C   0  0  0  0  0  0  0  0  0  0  0  0
    9.8915    4.1359   -6.4665 C   0  0  0  0  0  0  0  0  0  0  0  0
    9.6724    5.3198   -5.6581 N   0  0  0  0  0  0  0  0  0  0  0  0
    9.8277    5.3454   -4.2648 C   0  0  0  0  0  0  0  0  0  0  0  0
    9.4639    4.2145   -3.5369 C   0  0  0  0  0  0  0  0  0  0  0  0
    9.5857    4.1586   -2.1611 C   0  0  0  0  0  0  0  0  0  0  0  0
   10.0811    5.2374   -1.4332 C   0  0  0  0  0  0  0  0  0  0  0  0
   10.4390    6.3523   -2.1571 C   0  0  0  0  0  0  0  0  0  0  0  0
   11.0750    7.7535   -1.2832 Cl  0  0  0  0  0  0  0  0  0  0  0  0
   10.3185    6.4144   -3.5446 C   0  0  0  0  0  0  0  0  0  0  0  0
   10.7892    7.8587   -4.4150 Cl  0  0  0  0  0  0  0  0  0  0  0  0
    9.2708    6.5453   -6.3240 C   0  0  0  0  0  0  0  0  0  0  0  0
    8.0399    6.2210   -7.1470 C   0  0  0  0  0  0  0  0  0  0  0  0
   10.7714    7.5213  -11.0037 C   0  0  0  0  0  0  0  0  0  0  0  0
   11.8905    8.3227  -10.8962 C   0  0  0  0  0  0  0  0  0  0  0  0
   13.1909    7.8911  -11.3054 N   0  0  0  0  0  0  0  0  0  0  0  0
  1  2  2  0
  3  2  1  1
  3  4  1  0
  4  5  1  1
  5  6  2  0
  6  7  1  0
  7  8  2  0
  8  9  1  0
 10  9  1  1
 11 10  1  6
 11 12  1  0
 12 13  1  1
 13 14  1  6
 15 14  1  6
 15 16  1  0
 16 17  1  6
 17 18  1  0
 18 19  2  0
 19 20  1  0
 20 21  2  0
 21 22  1  0
 22 23  1  0
 22 24  2  0
 24 25  1  0
 26 17  1  6
 26 27  1  0
  8 28  1  0
 28 29  2  0
 29 30  1  0
 30  2  1  0
 29  5  1  0
 27 14  1  1
 24 18  1  0
M  END
$$$$
