caffeine
     RDKit          3D

 14 15  0  0  0  0  0  0  0  0999 V2000
  -18.6635    8.3347   17.8775 C   0  0  0  0  0  0  0  0  0  0  0  0
  -19.7764    7.4568   17.6544 N   0  0  0  0  0  0  0  0  0  0  0  0
  -20.9349    7.7567   17.0323 C   0  0  0  0  0  0  0  0  0  0  0  0
  -21.7025    6.6453   17.0410 N   0  0  0  0  0  0  0  0  0  0  0  0
  -21.0318    5.6748   17.6571 C   0  0  0  0  0  0  0  0  0  0  0  0
  -19.7894    6.1647   18.0636 C   0  0  0  0  0  0  0  0  0  0  0  0
  -18.8919    5.3476   18.7334 C   0  0  0  0  0  0  0  0  0  0  0  0
  -17.7848    5.8154   19.0856 O   0  0  0  0  0  0  0  0  0  0  0  0
  -19.2653    4.0762   18.9723 N   0  0  0  0  0  0  0  0  0  0  0  0
  -20.4695    3.5939   18.5808 C   0  0  0  0  0  0  0  0  0  0  0  0
  -20.8095    2.4048   18.8084 O   0  0  0  0  0  0  0  0  0  0  0  0
  -21.3301    4.3800   17.9376 N   0  0  0  0  0  0  0  0  0  0  0  0
  -22.6256    3.8353   17.5247 C   0  0  0  0  0  0  0  0  0  0  0  0
  -18.3593    3.1832   19.6704 C   0  0  0  0  0  0  0  0  0  0  0  0
  1  2  1  6
  2  3  1  0
  3  4  2  0
  4  5  1  0
  5  6  2  0
  6  7  1  0
  7  8  2  0
  7  9  1  0
  9 10  1  0
 10 11  2  0
 10 12  1  0
 13 12  1  6
 14  9  1  1
  6  2  1  0
 12  5  1  0
M  END
$$$$
