caffeine
     RDKit          3D

 14 15  0  0  0  0  0  0  0  0999 V2000
  -19.2041    3.0859   19.3072 C   0  0  0  0  0  0  0  0  0  0  0  0
  -19.1482    4.4676   18.9237 N   0  0  0  0  0  0  0  0  0  0  0  0
  -18.1510    5.3401   19.1751 C   0  0  0  0  0  0  0  0  0  0  0  0
  -18.5039    6.5288   18.6395 N   0  0  0  0  0  0  0  0  0  0  0  0
  -19.6979    6.3951   18.0668 C   0  0  0  0  0  0  0  0  0  0  0  0
  -20.1395    5.0810   18.2322 C   0  0  0  0  0  0  0  0  0  0  0  0
  -21.3645    4.6776   17.7240 C   0  0  0  0  0  0  0  0  0  0  0  0
  -21.7338    3.4922   17.8881 O   0  0  0  0  0  0  0  0  0  0  0  0
  -22.1016    5.5965   17.0718 N   0  0  0  0  0  0  0  0  0  0  0  0
  -21.6794    6.8735   16.9075 C   0  0  0  0  0  0  0  0  0  0  0  0
  -22.3749    7.7247   16.2967 O   0  0  0  0  0  0  0  0  0  0  0  0
  -20.5026    7.2591   17.3962 N   0  0  0  0  0  0  0  0  0  0  0  0
  -20.0684    8.6450   17.2056 C   0  0  0  0  0  0  0  0  0  0  0  0
  -23.3910    5.2209   16.5223 C   0  0  0  0  0  0  0  0  0  0  0  0
  1  2  1  6
  2  3  1  0
  3  4  2  0
  4  5  1  0
  5  6  2  0
  6  7  1  0
  7  8  2  0
  7  9  1  0
  9 10  1  0
 10 11  2  0
 10 12  1  0
 13 12  1  6
 14  9  1  1
  6  2  1  0
 12  5  1  0
M  END
$$$$
