caffeine
     RDKit          3D

 14 15  0  0  0  0  0  0  0  0999 V2000
  -17.6975    3.7010   20.0581 C   0  0  0  0  0  0  0  0  0  0  0  0
  -18.8171    4.0482   19.2303 N   0  0  0  0  0  0  0  0  0  0  0  0
  -19.0461    5.2343   18.6306 C   0  0  0  0  0  0  0  0  0  0  0  0
  -20.2085    5.1301   17.9505 N   0  0  0  0  0  0  0  0  0  0  0  0
  -20.6905    3.9020   18.1257 C   0  0  0  0  0  0  0  0  0  0  0  0
  -19.8188    3.1813   18.9441 C   0  0  0  0  0  0  0  0  0  0  0  0
  -20.0924    1.8652   19.2825 C   0  0  0  0  0  0  0  0  0  0  0  0
  -19.2915    1.2442   20.0185 O   0  0  0  0  0  0  0  0  0  0  0  0
  -21.2215    1.3180   18.7939 N   0  0  0  0  0  0  0  0  0  0  0  0
  -22.0721    2.0114   17.9992 C   0  0  0  0  0  0  0  0  0  0  0  0
  -23.1245    1.4918   17.5475 O   0  0  0  0  0  0  0  0  0  0  0  0
  -21.8078    3.2753   17.6752 N   0  0  0  0  0  0  0  0  0  0  0  0
  -22.7429    4.0037   16.8146 C   0  0  0  0  0  0  0  0  0  0  0  0
  -21.5502   -0.0571   19.1209 C   0  0  0  0  0  0  0  0  0  0  0  0
  1  2  1  6
  2  3  1  0
  3  4  2  0
  4  5  1  0
  5  6  2  0
  6  7  1  0
  7  8  2  0
  7  9  1  0
  9 10  1  0
 10 11  2  0
 10 12  1  0
 13 12  1  6
 14  9  1  1
  6  2  1  0
 12  5  1  0
M  END
$$$$
