caffeine
     RDKit          3D

 14 15  0  0  0  0  0  0  0  0999 V2000
  -17.5060    4.1015   19.8135 C   0  0  0  0  0  0  0  0  0  0  0  0
  -18.5000    4.7531   19.0094 N   0  0  0  0  0  0  0  0  0  0  0  0
  -18.3977    5.9567   18.4097 C   0  0  0  0  0  0  0  0  0  0  0  0
  -19.5571    6.1872   17.7563 N   0  0  0  0  0  0  0  0  0  0  0  0
  -20.3629    5.1454   17.9478 C   0  0  0  0  0  0  0  0  0  0  0  0
  -19.7124    4.2057   18.7496 C   0  0  0  0  0  0  0  0  0  0  0  0
  -20.3395    3.0201   19.1000 C   0  0  0  0  0  0  0  0  0  0  0  0
  -19.7305    2.1963   19.8206 O   0  0  0  0  0  0  0  0  0  0  0  0
  -21.5881    2.8158   18.6393 N   0  0  0  0  0  0  0  0  0  0  0  0
  -22.2256    3.7233   17.8607 C   0  0  0  0  0  0  0  0  0  0  0  0
  -23.3920    3.5237   17.4351 O   0  0  0  0  0  0  0  0  0  0  0  0
  -21.6219    4.8614   17.5252 N   0  0  0  0  0  0  0  0  0  0  0  0
  -22.3319    5.8264   16.6826 C   0  0  0  0  0  0  0  0  0  0  0  0
  -22.2850    1.5894   18.9797 C   0  0  0  0  0  0  0  0  0  0  0  0
  1  2  1  6
  2  3  1  0
  3  4  2  0
  4  5  1  0
  5  6  2  0
  6  7  1  0
  7  8  2  0
  7  9  1  0
  9 10  1  0
 10 11  2  0
 10 12  1  0
 13 12  1  6
 14  9  1  1
  6  2  1  0
 12  5  1  0
M  END
$$$$
