caffeine
     RDKit          3D

 14 15  0  0  0  0  0  0  0  0999 V2000
  -18.7181    8.1527   18.1177 C   0  0  0  0  0  0  0  0  0  0  0  0
  -19.8404    7.3267   17.7751 N   0  0  0  0  0  0  0  0  0  0  0  0
  -20.9679    7.7108   17.1425 C   0  0  0  0  0  0  0  0  0  0  0  0
  -21.7589    6.6227   17.0213 N   0  0  0  0  0  0  0  0  0  0  0  0
  -21.1329    5.5836   17.5688 C   0  0  0  0  0  0  0  0  0  0  0  0
  -19.8964    6.0034   18.0627 C   0  0  0  0  0  0  0  0  0  0  0  0
  -19.0425    5.1065   18.6857 C   0  0  0  0  0  0  0  0  0  0  0  0
  -17.9397    5.5126   19.1188 O   0  0  0  0  0  0  0  0  0  0  0  0
  -19.4519    3.8282   18.7929 N   0  0  0  0  0  0  0  0  0  0  0  0
  -20.6505    3.4137   18.3159 C   0  0  0  0  0  0  0  0  0  0  0  0
  -21.0242    2.2176   18.4207 O   0  0  0  0  0  0  0  0  0  0  0  0
  -21.4692    4.2764   17.7178 N   0  0  0  0  0  0  0  0  0  0  0  0
  -22.7596    3.8040   17.2106 C   0  0  0  0  0  0  0  0  0  0  0  0
  -18.5921    2.8530   19.4374 C   0  0  0  0  0  0  0  0  0  0  0  0
  1  2  1  6
  2  3  1  0
  3  4  2  0
  4  5  1  0
  5  6  2  0
  6  7  1  0
  7  8  2  0
  7  9  1  0
  9 10  1  0
 10 11  2  0
 10 12  1  0
 13 12  1  6
 14  9  1  1
  6  2  1  0
 12  5  1  0
M  END
$$$$
