caffeine
     RDKit          3D

 14 15  0  0  0  0  0  0  0  0999 V2000
  -19.2495    2.9509   19.2510 C   0  0  0  0  0  0  0  0  0  0  0  0
  -19.1648    4.3346   18.8804 N   0  0  0  0  0  0  0  0  0  0  0  0
  -18.1538    5.1862   19.1479 C   0  0  0  0  0  0  0  0  0  0  0  0
  -18.4800    6.3859   18.6200 N   0  0  0  0  0  0  0  0  0  0  0  0
  -19.6712    6.2794   18.0361 C   0  0  0  0  0  0  0  0  0  0  0  0
  -20.1385    4.9725   18.1860 C   0  0  0  0  0  0  0  0  0  0  0  0
  -21.3663    4.5963   17.6639 C   0  0  0  0  0  0  0  0  0  0  0  0
  -21.7590    3.4166   17.8143 O   0  0  0  0  0  0  0  0  0  0  0  0
  -22.0807    5.5344   17.0136 N   0  0  0  0  0  0  0  0  0  0  0  0
  -21.6335    6.8048   16.8643 C   0  0  0  0  0  0  0  0  0  0  0  0
  -22.3078    7.6741   16.2554 O   0  0  0  0  0  0  0  0  0  0  0  0
  -20.4540    7.1642   17.3664 N   0  0  0  0  0  0  0  0  0  0  0  0
  -19.9926    8.5434   17.1919 C   0  0  0  0  0  0  0  0  0  0  0  0
  -23.3720    5.1877   16.4499 C   0  0  0  0  0  0  0  0  0  0  0  0
  1  2  1  6
  2  3  1  0
  3  4  2  0
  4  5  1  0
  5  6  2  0
  6  7  1  0
  7  8  2  0
  7  9  1  0
  9 10  1  0
 10 11  2  0
 10 12  1  0
 13 12  1  6
 14  9  1  1
  6  2  1  0
 12  5  1  0
M  END
$$$$
