caffeine
     RDKit          3D

 14 15  0  0  0  0  0  0  0  0999 V2000
  -18.8048    7.8290   18.2882 C   0  0  0  0  0  0  0  0  0  0  0  0
  -20.0502    7.4984   17.6566 N   0  0  0  0  0  0  0  0  0  0  0  0
  -20.7914    8.2933   16.8581 C   0  0  0  0  0  0  0  0  0  0  0  0
  -21.8818    7.5906   16.4813 N   0  0  0  0  0  0  0  0  0  0  0  0
  -21.8171    6.3827   17.0364 C   0  0  0  0  0  0  0  0  0  0  0  0
  -20.6509    6.2918   17.7984 C   0  0  0  0  0  0  0  0  0  0  0  0
  -20.3440    5.1273   18.4851 C   0  0  0  0  0  0  0  0  0  0  0  0
  -19.2906    5.0756   19.1606 O   0  0  0  0  0  0  0  0  0  0  0  0
  -21.2086    4.0998   18.3869 N   0  0  0  0  0  0  0  0  0  0  0  0
  -22.3423    4.1809   17.6491 C   0  0  0  0  0  0  0  0  0  0  0  0
  -23.1439    3.2158   17.5633 O   0  0  0  0  0  0  0  0  0  0  0  0
  -22.6354    5.3000   16.9903 N   0  0  0  0  0  0  0  0  0  0  0  0
  -23.8668    5.3630   16.1997 C   0  0  0  0  0  0  0  0  0  0  0  0
  -20.9300    2.8603   19.0880 C   0  0  0  0  0  0  0  0  0  0  0  0
  1  2  1  6
  2  3  1  0
  3  4  2  0
  4  5  1  0
  5  6  2  0
  6  7  1  0
  7  8  2  0
  7  9  1  0
  9 10  1  0
 10 11  2  0
 10 12  1  0
 13 12  1  6
 14  9  1  1
  6  2  1  0
 12  5  1  0
M  END
$$$$
