caffeine
     RDKit          3D

 14 15  0  0  0  0  0  0  0  0999 V2000
  -18.7323    8.1786   18.0122 C   0  0  0  0  0  0  0  0  0  0  0  0
  -19.8147    7.2905   17.6978 N   0  0  0  0  0  0  0  0  0  0  0  0
  -20.9495    7.5961   17.0363 C   0  0  0  0  0  0  0  0  0  0  0  0
  -21.6926    6.4708   16.9588 N   0  0  0  0  0  0  0  0  0  0  0  0
  -21.0301    5.4862   17.5613 C   0  0  0  0  0  0  0  0  0  0  0  0
  -19.8185    5.9809   18.0473 C   0  0  0  0  0  0  0  0  0  0  0  0
  -18.9354    5.1515   18.7208 C   0  0  0  0  0  0  0  0  0  0  0  0
  -17.8559    5.6240   19.1453 O   0  0  0  0  0  0  0  0  0  0  0  0
  -19.2919    3.8633   18.8844 N   0  0  0  0  0  0  0  0  0  0  0  0
  -20.4661    3.3763   18.4154 C   0  0  0  0  0  0  0  0  0  0  0  0
  -20.7905    2.1716   18.5730 O   0  0  0  0  0  0  0  0  0  0  0  0
  -21.3130    4.1743   17.7688 N   0  0  0  0  0  0  0  0  0  0  0  0
  -22.5761    3.6241   17.2714 C   0  0  0  0  0  0  0  0  0  0  0  0
  -18.3998    2.9570   19.5832 C   0  0  0  0  0  0  0  0  0  0  0  0
  1  2  1  6
  2  3  1  0
  3  4  2  0
  4  5  1  0
  5  6  2  0
  6  7  1  0
  7  8  2  0
  7  9  1  0
  9 10  1  0
 10 11  2  0
 10 12  1  0
 13 12  1  6
 14  9  1  1
  6  2  1  0
 12  5  1  0
M  END
$$$$
