caffeine
     RDKit          3D

 14 15  0  0  0  0  0  0  0  0999 V2000
  -19.2469    3.1202   19.4895 C   0  0  0  0  0  0  0  0  0  0  0  0
  -19.1894    4.4860   19.0529 N   0  0  0  0  0  0  0  0  0  0  0  0
  -18.2056    5.3755   19.2972 C   0  0  0  0  0  0  0  0  0  0  0  0
  -18.5510    6.5392   18.7049 N   0  0  0  0  0  0  0  0  0  0  0  0
  -19.7273    6.3735   18.1046 C   0  0  0  0  0  0  0  0  0  0  0  0
  -20.1646    5.0637   18.3098 C   0  0  0  0  0  0  0  0  0  0  0  0
  -21.3720    4.6309   17.7838 C   0  0  0  0  0  0  0  0  0  0  0  0
  -21.7379    3.4500   17.9846 O   0  0  0  0  0  0  0  0  0  0  0  0
  -22.0964    5.5173   17.0749 N   0  0  0  0  0  0  0  0  0  0  0  0
  -21.6782    6.7901   16.8717 C   0  0  0  0  0  0  0  0  0  0  0  0
  -22.3617    7.6109   16.2082 O   0  0  0  0  0  0  0  0  0  0  0  0
  -20.5184    7.2040   17.3776 N   0  0  0  0  0  0  0  0  0  0  0  0
  -20.0882    8.5846   17.1442 C   0  0  0  0  0  0  0  0  0  0  0  0
  -23.3671    5.1102   16.5047 C   0  0  0  0  0  0  0  0  0  0  0  0
  1  2  1  6
  2  3  1  0
  3  4  2  0
  4  5  1  0
  5  6  2  0
  6  7  1  0
  7  8  2  0
  7  9  1  0
  9 10  1  0
 10 11  2  0
 10 12  1  0
 13 12  1  6
 14  9  1  1
  6  2  1  0
 12  5  1  0
M  END
$$$$
