caffeine
     RDKit          3D

 14 15  0  0  0  0  0  0  0  0999 V2000
  -17.6905    3.8619   19.7983 C   0  0  0  0  0  0  0  0  0  0  0  0
  -18.8401    4.0756   18.9665 N   0  0  0  0  0  0  0  0  0  0  0  0
  -19.1483    5.1946   18.2796 C   0  0  0  0  0  0  0  0  0  0  0  0
  -20.3115    4.9683   17.6314 N   0  0  0  0  0  0  0  0  0  0  0  0
  -20.7163    3.7318   17.9115 C   0  0  0  0  0  0  0  0  0  0  0  0
  -19.7917    3.1311   18.7678 C   0  0  0  0  0  0  0  0  0  0  0  0
  -19.9808    1.8323   19.2137 C   0  0  0  0  0  0  0  0  0  0  0  0
  -19.1340    1.3201   19.9814 O   0  0  0  0  0  0  0  0  0  0  0  0
  -21.0815    1.1823   18.7906 N   0  0  0  0  0  0  0  0  0  0  0  0
  -21.9832    1.7589   17.9595 C   0  0  0  0  0  0  0  0  0  0  0  0
  -23.0084    1.1439   17.5696 O   0  0  0  0  0  0  0  0  0  0  0  0
  -21.7999    3.0064   17.5323 N   0  0  0  0  0  0  0  0  0  0  0  0
  -22.7888    3.6076   16.6345 C   0  0  0  0  0  0  0  0  0  0  0  0
  -21.3223   -0.1793   19.2307 C   0  0  0  0  0  0  0  0  0  0  0  0
  1  2  1  6
  2  3  1  0
  3  4  2  0
  4  5  1  0
  5  6  2  0
  6  7  1  0
  7  8  2  0
  7  9  1  0
  9 10  1  0
 10 11  2  0
 10 12  1  0
 13 12  1  6
 14  9  1  1
  6  2  1  0
 12  5  1  0
M  END
$$$$
