
     RDKit          3D

 30 33  0  0  0  0  0  0  0  0999 V2000
  108.8469  120.7182  110.8834 O   0  0  0  0  0  0  0  0  0  0  0  0
  108.2011  119.6686  111.1315 C   0  0  0  0  0  0  0  0  0  0  0  0
  108.6071  118.3339  110.5687 C   0  0  0  0  0  0  0  0  0  0  0  0
  107.4267  117.6949  109.8520 C   0  0  0  0  0  0  0  0  0  0  0  0
  106.2358  117.7366  110.7365 C   0  0  0  0  0  0  0  0  0  0  0  0
  105.2677  116.7829  110.5327 C   0  0  0  0  0  0  0  0  0  0  0  0
  104.1408  116.7578  111.3118 C   0  0  0  0  0  0  0  0  0  0  0  0
  103.9079  117.6801  112.3413 C   0  0  0  0  0  0  0  0  0  0  0  0
  102.7656  117.5411  113.0298 O   0  0  0  0  0  0  0  0  0  0  0  0
  101.9045  116.4796  113.1372 C   0  0  0  0  0  0  0  0  0  0  0  0
  100.6777  116.8013  113.9178 C   0  0  0  0  0  0  0  0  0  0  0  0
  100.8228  116.7047  115.4003 C   0  0  0  0  0  0  0  0  0  0  0  0
  101.1697  117.9709  116.0946 C   0  0  0  0  0  0  0  0  0  0  0  0
  101.0901  117.7913  117.5391 N   0  0  0  0  0  0  0  0  0  0  0  0
  102.0784  116.9099  118.0448 C   0  0  0  0  0  0  0  0  0  0  0  0
  101.5225  116.0479  119.1345 C   0  0  0  0  0  0  0  0  0  0  0  0
  100.7308  116.8275  120.0464 N   0  0  0  0  0  0  0  0  0  0  0  0
  100.8681  116.8286  121.4516 C   0  0  0  0  0  0  0  0  0  0  0  0
   99.6768  116.8232  122.1865 C   0  0  0  0  0  0  0  0  0  0  0  0
   99.6937  116.8159  123.5644 C   0  0  0  0  0  0  0  0  0  0  0  0
  100.9123  116.8141  124.2482 C   0  0  0  0  0  0  0  0  0  0  0  0
  102.0863  116.8195  123.5438 C   0  0  0  0  0  0  0  0  0  0  0  0
  103.6195  116.8183  124.3903 Cl  0  0  0  0  0  0  0  0  0  0  0  0
  102.0447  116.8266  122.1462 C   0  0  0  0  0  0  0  0  0  0  0  0
  103.5775  116.8415  121.3193 Cl  0  0  0  0  0  0  0  0  0  0  0  0
   99.6675  117.6914  119.5102 C   0  0  0  0  0  0  0  0  0  0  0  0
   99.7505  117.5890  117.9903 C   0  0  0  0  0  0  0  0  0  0  0  0
  104.8969  118.6193  112.5174 C   0  0  0  0  0  0  0  0  0  0  0  0
  106.0510  118.6618  111.7345 C   0  0  0  0  0  0  0  0  0  0  0  0
  107.0446  119.6642  111.9581 N   0  0  0  0  0  0  0  0  0  0  0  0
  1  2  2  0
  3  2  1  1
  3  4  1  0
  4  5  1  1
  5  6  2  0
  6  7  1  0
  7  8  2  0
  8  9  1  0
 10  9  1  1
 11 10  1  6
 11 12  1  0
 12 13  1  1
 13 14  1  6
 15 14  1  6
 15 16  1  0
 16 17  1  6
 17 18  1  0
 18 19  2  0
 19 20  1  0
 20 21  2  0
 21 22  1  0
 22 23  1  0
 22 24  2  0
 24 25  1  0
 26 17  1  6
 26 27  1  0
  8 28  1  0
 28 29  2  0
 29 30  1  0
 30  2  1  0
 29  5  1  0
 27 14  1  1
 24 18  1  0
M  END
$$$$
