
     RDKit          3D

 30 33  0  0  0  0  0  0  0  0999 V2000
  108.9196  120.5504  111.3282 O   0  0  0  0  0  0  0  0  0  0  0  0
  108.2609  119.4909  111.4824 C   0  0  0  0  0  0  0  0  0  0  0  0
  108.6875  118.1915  110.8558 C   0  0  0  0  0  0  0  0  0  0  0  0
  107.5378  117.6044  110.0504 C   0  0  0  0  0  0  0  0  0  0  0  0
  106.3096  117.5976  110.8834 C   0  0  0  0  0  0  0  0  0  0  0  0
  105.3488  116.6635  110.5790 C   0  0  0  0  0  0  0  0  0  0  0  0
  104.1889  116.5961  111.3056 C   0  0  0  0  0  0  0  0  0  0  0  0
  103.9138  117.4541  112.3793 C   0  0  0  0  0  0  0  0  0  0  0  0
  102.7423  117.2788  113.0078 O   0  0  0  0  0  0  0  0  0  0  0  0
  101.9155  116.1875  113.0796 C   0  0  0  0  0  0  0  0  0  0  0  0
  100.6540  116.4602  113.8227 C   0  0  0  0  0  0  0  0  0  0  0  0
  100.7835  116.4843  115.3095 C   0  0  0  0  0  0  0  0  0  0  0  0
  100.6947  117.8265  115.9392 C   0  0  0  0  0  0  0  0  0  0  0  0
  100.7354  117.7051  117.3914 N   0  0  0  0  0  0  0  0  0  0  0  0
  102.0127  117.3353  117.8826 C   0  0  0  0  0  0  0  0  0  0  0  0
  101.8917  116.3787  119.0270 C   0  0  0  0  0  0  0  0  0  0  0  0
  100.8738  116.8101  119.9456 N   0  0  0  0  0  0  0  0  0  0  0  0
  101.0364  116.9403  121.3421 C   0  0  0  0  0  0  0  0  0  0  0  0
   99.9495  117.4787  122.0408 C   0  0  0  0  0  0  0  0  0  0  0  0
   99.9968  117.6431  123.4082 C   0  0  0  0  0  0  0  0  0  0  0  0
  101.1415  117.2704  124.1176 C   0  0  0  0  0  0  0  0  0  0  0  0
  102.2130  116.7424  123.4487 C   0  0  0  0  0  0  0  0  0  0  0  0
  103.6534  116.2727  124.3274 Cl  0  0  0  0  0  0  0  0  0  0  0  0
  102.1424  116.5847  122.0611 C   0  0  0  0  0  0  0  0  0  0  0  0
  103.5467  115.9144  121.2789 Cl  0  0  0  0  0  0  0  0  0  0  0  0
   99.5348  117.1315  119.4281 C   0  0  0  0  0  0  0  0  0  0  0  0
   99.6115  116.9937  117.9107 C   0  0  0  0  0  0  0  0  0  0  0  0
  104.8968  118.3753  112.6561 C   0  0  0  0  0  0  0  0  0  0  0  0
  106.0839  118.4602  111.9280 C   0  0  0  0  0  0  0  0  0  0  0  0
  107.0695  119.4415  112.2563 N   0  0  0  0  0  0  0  0  0  0  0  0
  1  2  2  0
  3  2  1  1
  3  4  1  0
  4  5  1  1
  5  6  2  0
  6  7  1  0
  7  8  2  0
  8  9  1  0
 10  9  1  1
 11 10  1  6
 11 12  1  0
 12 13  1  1
 13 14  1  6
 15 14  1  6
 15 16  1  0
 16 17  1  6
 17 18  1  0
 18 19  2  0
 19 20  1  0
 20 21  2  0
 21 22  1  0
 22 23  1  0
 22 24  2  0
 24 25  1  0
 26 17  1  6
 26 27  1  0
  8 28  1  0
 28 29  2  0
 29 30  1  0
 30  2  1  0
 29  5  1  0
 27 14  1  1
 24 18  1  0
M  END
$$$$
