
     RDKit          3D

 30 33  0  0  0  0  0  0  0  0999 V2000
  108.6210  121.1014  110.4444 O   0  0  0  0  0  0  0  0  0  0  0  0
  108.1314  119.9674  110.6776 C   0  0  0  0  0  0  0  0  0  0  0  0
  108.6558  118.7234  110.0138 C   0  0  0  0  0  0  0  0  0  0  0  0
  107.5126  117.9729  109.3466 C   0  0  0  0  0  0  0  0  0  0  0  0
  106.3967  117.8204  110.3130 C   0  0  0  0  0  0  0  0  0  0  0  0
  105.5418  116.7613  110.1242 C   0  0  0  0  0  0  0  0  0  0  0  0
  104.4896  116.5557  110.9774 C   0  0  0  0  0  0  0  0  0  0  0  0
  104.2232  117.3913  112.0707 C   0  0  0  0  0  0  0  0  0  0  0  0
  103.1630  117.0753  112.8285 O   0  0  0  0  0  0  0  0  0  0  0  0
  102.1632  117.8577  113.3463 C   0  0  0  0  0  0  0  0  0  0  0  0
  101.1970  117.0914  114.1812 C   0  0  0  0  0  0  0  0  0  0  0  0
  101.5207  117.0323  115.6371 C   0  0  0  0  0  0  0  0  0  0  0  0
  101.3730  118.3102  116.3793 C   0  0  0  0  0  0  0  0  0  0  0  0
  101.3076  118.0551  117.8132 N   0  0  0  0  0  0  0  0  0  0  0  0
  102.4276  117.3362  118.3014 C   0  0  0  0  0  0  0  0  0  0  0  0
  102.0161  116.3432  119.3426 C   0  0  0  0  0  0  0  0  0  0  0  0
  101.0895  116.9326  120.2701 N   0  0  0  0  0  0  0  0  0  0  0  0
  101.2068  116.8946  121.6767 C   0  0  0  0  0  0  0  0  0  0  0  0
  100.0052  116.8557  122.3937 C   0  0  0  0  0  0  0  0  0  0  0  0
  100.0027  116.8089  123.7710 C   0  0  0  0  0  0  0  0  0  0  0  0
  101.2113  116.7999  124.4721 C   0  0  0  0  0  0  0  0  0  0  0  0
  102.3951  116.8377  123.7852 C   0  0  0  0  0  0  0  0  0  0  0  0
  103.9160  116.8279  124.6535 Cl  0  0  0  0  0  0  0  0  0  0  0  0
  102.3733  116.8847  122.3879 C   0  0  0  0  0  0  0  0  0  0  0  0
  103.9175  116.9392  121.5842 Cl  0  0  0  0  0  0  0  0  0  0  0  0
   99.8992  117.6226  119.7492 C   0  0  0  0  0  0  0  0  0  0  0  0
  100.0179  117.6042  118.2283 C   0  0  0  0  0  0  0  0  0  0  0  0
  105.0986  118.4401  112.2298 C   0  0  0  0  0  0  0  0  0  0  0  0
  106.1752  118.6666  111.3718 C   0  0  0  0  0  0  0  0  0  0  0  0
  107.0508  119.7763  111.5815 N   0  0  0  0  0  0  0  0  0  0  0  0
  1  2  2  0
  3  2  1  1
  3  4  1  0
  4  5  1  1
  5  6  2  0
  6  7  1  0
  7  8  2  0
  8  9  1  0
 10  9  1  1
 11 10  1  6
 11 12  1  0
 12 13  1  1
 13 14  1  6
 15 14  1  6
 15 16  1  0
 16 17  1  6
 17 18  1  0
 18 19  2  0
 19 20  1  0
 20 21  2  0
 21 22  1  0
 22 23  1  0
 22 24  2  0
 24 25  1  0
 26 17  1  6
 26 27  1  0
  8 28  1  0
 28 29  2  0
 29 30  1  0
 30  2  1  0
 29  5  1  0
 27 14  1  1
 24 18  1  0
M  END
$$$$
