
     RDKit          3D

 30 33  0  0  0  0  0  0  0  0999 V2000
  108.2117  116.8922  108.4858 O   0  0  0  0  0  0  0  0  0  0  0  0
  107.5013  117.6717  109.1698 C   0  0  0  0  0  0  0  0  0  0  0  0
  107.9007  119.1009  109.4167 C   0  0  0  0  0  0  0  0  0  0  0  0
  107.8893  119.3898  110.9106 C   0  0  0  0  0  0  0  0  0  0  0  0
  106.6051  118.9231  111.4898 C   0  0  0  0  0  0  0  0  0  0  0  0
  106.1713  119.5420  112.6374 C   0  0  0  0  0  0  0  0  0  0  0  0
  104.9939  119.1656  113.2286 C   0  0  0  0  0  0  0  0  0  0  0  0
  104.1759  118.1501  112.7144 C   0  0  0  0  0  0  0  0  0  0  0  0
  103.0483  117.8829  113.3891 O   0  0  0  0  0  0  0  0  0  0  0  0
  102.2212  116.7898  113.3600 C   0  0  0  0  0  0  0  0  0  0  0  0
  100.9743  116.9815  114.1514 C   0  0  0  0  0  0  0  0  0  0  0  0
  101.1466  116.9303  115.6332 C   0  0  0  0  0  0  0  0  0  0  0  0
   99.9177  117.1754  116.4305 C   0  0  0  0  0  0  0  0  0  0  0  0
  100.1969  117.0051  117.8512 N   0  0  0  0  0  0  0  0  0  0  0  0
   99.8608  118.1450  118.6241 C   0  0  0  0  0  0  0  0  0  0  0  0
  100.8722  118.3804  119.7016 C   0  0  0  0  0  0  0  0  0  0  0  0
  101.2101  117.1485  120.3606 N   0  0  0  0  0  0  0  0  0  0  0  0
  101.2075  116.9422  121.7573 C   0  0  0  0  0  0  0  0  0  0  0  0
  100.0422  117.3223  122.4335 C   0  0  0  0  0  0  0  0  0  0  0  0
   99.9283  117.1585  123.7970 C   0  0  0  0  0  0  0  0  0  0  0  0
  100.9852  116.6061  124.5252 C   0  0  0  0  0  0  0  0  0  0  0  0
  102.1317  116.2294  123.8784 C   0  0  0  0  0  0  0  0  0  0  0  0
  103.4632  115.5369  124.7811 Cl  0  0  0  0  0  0  0  0  0  0  0  0
  102.2247  116.4050  122.4944 C   0  0  0  0  0  0  0  0  0  0  0  0
  103.7160  115.9102  121.7430 Cl  0  0  0  0  0  0  0  0  0  0  0  0
  101.6164  115.9919  119.5473 C   0  0  0  0  0  0  0  0  0  0  0  0
  101.4758  116.4162  118.0887 C   0  0  0  0  0  0  0  0  0  0  0  0
  104.6401  117.5532  111.5656 C   0  0  0  0  0  0  0  0  0  0  0  0
  105.8362  117.9218  110.9490 C   0  0  0  0  0  0  0  0  0  0  0  0
  106.2734  117.2632  109.7586 N   0  0  0  0  0  0  0  0  0  0  0  0
  1  2  2  0
  3  2  1  1
  3  4  1  0
  4  5  1  1
  5  6  2  0
  6  7  1  0
  7  8  2  0
  8  9  1  0
 10  9  1  1
 11 10  1  6
 11 12  1  0
 12 13  1  1
 13 14  1  6
 15 14  1  6
 15 16  1  0
 16 17  1  6
 17 18  1  0
 18 19  2  0
 19 20  1  0
 20 21  2  0
 21 22  1  0
 22 23  1  0
 22 24  2  0
 24 25  1  0
 26 17  1  6
 26 27  1  0
  8 28  1  0
 28 29  2  0
 29 30  1  0
 30  2  1  0
 29  5  1  0
 27 14  1  1
 24 18  1  0
M  END
$$$$
