
     RDKit          3D

 30 33  0  0  0  0  0  0  0  0999 V2000
  109.1453  117.1731  109.3687 O   0  0  0  0  0  0  0  0  0  0  0  0
  108.0963  117.7507  109.7510 C   0  0  0  0  0  0  0  0  0  0  0  0
  108.0371  119.2406  109.9508 C   0  0  0  0  0  0  0  0  0  0  0  0
  107.5226  119.5544  111.3480 C   0  0  0  0  0  0  0  0  0  0  0  0
  106.2850  118.7753  111.6006 C   0  0  0  0  0  0  0  0  0  0  0  0
  105.3979  119.2846  112.5181 C   0  0  0  0  0  0  0  0  0  0  0  0
  104.2329  118.6213  112.8020 C   0  0  0  0  0  0  0  0  0  0  0  0
  103.8793  117.4106  112.1906 C   0  0  0  0  0  0  0  0  0  0  0  0
  102.7090  116.8681  112.5569 O   0  0  0  0  0  0  0  0  0  0  0  0
  101.6337  117.4095  113.2130 C   0  0  0  0  0  0  0  0  0  0  0  0
  100.7381  116.3810  113.8114 C   0  0  0  0  0  0  0  0  0  0  0  0
  100.8172  116.2543  115.2965 C   0  0  0  0  0  0  0  0  0  0  0  0
  100.2768  117.4028  116.0678 C   0  0  0  0  0  0  0  0  0  0  0  0
  100.4017  117.1521  117.4984 N   0  0  0  0  0  0  0  0  0  0  0  0
  100.0499  118.2729  118.2919 C   0  0  0  0  0  0  0  0  0  0  0  0
  100.9582  118.4002  119.4743 C   0  0  0  0  0  0  0  0  0  0  0  0
  101.1624  117.1220  120.0993 N   0  0  0  0  0  0  0  0  0  0  0  0
  101.0078  116.8527  121.4767 C   0  0  0  0  0  0  0  0  0  0  0  0
   99.6920  116.8155  121.9527 C   0  0  0  0  0  0  0  0  0  0  0  0
   99.4249  116.5535  123.2790 C   0  0  0  0  0  0  0  0  0  0  0  0
  100.4754  116.3203  124.1704 C   0  0  0  0  0  0  0  0  0  0  0  0
  101.7680  116.3534  123.7203 C   0  0  0  0  0  0  0  0  0  0  0  0
  103.0926  116.0637  124.8288 Cl  0  0  0  0  0  0  0  0  0  0  0  0
  102.0149  116.6211  122.3703 C   0  0  0  0  0  0  0  0  0  0  0  0
  103.6839  116.6549  121.8735 Cl  0  0  0  0  0  0  0  0  0  0  0  0
  101.5871  115.9823  119.2718 C   0  0  0  0  0  0  0  0  0  0  0  0
  101.6172  116.4802  117.8301 C   0  0  0  0  0  0  0  0  0  0  0  0
  104.7894  116.9307  111.2780 C   0  0  0  0  0  0  0  0  0  0  0  0
  105.9809  117.5907  110.9757 C   0  0  0  0  0  0  0  0  0  0  0  0
  106.8935  117.0431  110.0222 N   0  0  0  0  0  0  0  0  0  0  0  0
  1  2  2  0
  3  2  1  1
  3  4  1  0
  4  5  1  1
  5  6  2  0
  6  7  1  0
  7  8  2  0
  8  9  1  0
 10  9  1  1
 11 10  1  6
 11 12  1  0
 12 13  1  1
 13 14  1  6
 15 14  1  6
 15 16  1  0
 16 17  1  6
 17 18  1  0
 18 19  2  0
 19 20  1  0
 20 21  2  0
 21 22  1  0
 22 23  1  0
 22 24  2  0
 24 25  1  0
 26 17  1  6
 26 27  1  0
  8 28  1  0
 28 29  2  0
 29 30  1  0
 30  2  1  0
 29  5  1  0
 27 14  1  1
 24 18  1  0
M  END
$$$$
