
     RDKit          3D

 30 33  0  0  0  0  0  0  0  0999 V2000
  108.8693  120.6219  110.5710 O   0  0  0  0  0  0  0  0  0  0  0  0
  108.2732  119.5355  110.7820 C   0  0  0  0  0  0  0  0  0  0  0  0
  108.6366  118.2738  110.0476 C   0  0  0  0  0  0  0  0  0  0  0  0
  107.3947  117.6749  109.4039 C   0  0  0  0  0  0  0  0  0  0  0  0
  106.3093  117.5969  110.4129 C   0  0  0  0  0  0  0  0  0  0  0  0
  105.3409  116.6409  110.2219 C   0  0  0  0  0  0  0  0  0  0  0  0
  104.3085  116.5084  111.1130 C   0  0  0  0  0  0  0  0  0  0  0  0
  104.1761  117.3191  112.2487 C   0  0  0  0  0  0  0  0  0  0  0  0
  103.1203  117.0817  113.0406 O   0  0  0  0  0  0  0  0  0  0  0  0
  101.9550  117.7820  113.2186 C   0  0  0  0  0  0  0  0  0  0  0  0
  101.0228  117.1276  114.1781 C   0  0  0  0  0  0  0  0  0  0  0  0
  101.3698  117.2984  115.6198 C   0  0  0  0  0  0  0  0  0  0  0  0
  100.3233  116.8766  116.5856 C   0  0  0  0  0  0  0  0  0  0  0  0
  100.8476  116.9160  117.9453 N   0  0  0  0  0  0  0  0  0  0  0  0
   99.9095  116.4819  118.9154 C   0  0  0  0  0  0  0  0  0  0  0  0
  100.0024  117.3081  120.1597 C   0  0  0  0  0  0  0  0  0  0  0  0
  101.3750  117.5079  120.5368 N   0  0  0  0  0  0  0  0  0  0  0  0
  101.9113  117.2726  121.8215 C   0  0  0  0  0  0  0  0  0  0  0  0
  102.5611  118.3556  122.4251 C   0  0  0  0  0  0  0  0  0  0  0  0
  103.1147  118.2394  123.6818 C   0  0  0  0  0  0  0  0  0  0  0  0
  103.0322  117.0276  124.3724 C   0  0  0  0  0  0  0  0  0  0  0  0
  102.4000  115.9589  123.7955 C   0  0  0  0  0  0  0  0  0  0  0  0
  102.2915  114.4347  124.6514 Cl  0  0  0  0  0  0  0  0  0  0  0  0
  101.8456  116.1000  122.5196 C   0  0  0  0  0  0  0  0  0  0  0  0
  101.0650  114.6955  121.8477 Cl  0  0  0  0  0  0  0  0  0  0  0  0
  102.3238  118.0176  119.5347 C   0  0  0  0  0  0  0  0  0  0  0  0
  101.5526  118.1263  118.2228 C   0  0  0  0  0  0  0  0  0  0  0  0
  105.1625  118.2640  112.4087 C   0  0  0  0  0  0  0  0  0  0  0  0
  106.2211  118.4149  111.5126 C   0  0  0  0  0  0  0  0  0  0  0  0
  107.2162  119.4182  111.7254 N   0  0  0  0  0  0  0  0  0  0  0  0
  1  2  2  0
  3  2  1  1
  3  4  1  0
  4  5  1  1
  5  6  2  0
  6  7  1  0
  7  8  2  0
  8  9  1  0
 10  9  1  1
 11 10  1  6
 11 12  1  0
 12 13  1  1
 13 14  1  6
 15 14  1  6
 15 16  1  0
 16 17  1  6
 17 18  1  0
 18 19  2  0
 19 20  1  0
 20 21  2  0
 21 22  1  0
 22 23  1  0
 22 24  2  0
 24 25  1  0
 26 17  1  6
 26 27  1  0
  8 28  1  0
 28 29  2  0
 29 30  1  0
 30  2  1  0
 29  5  1  0
 27 14  1  1
 24 18  1  0
M  END
$$$$
