
     RDKit          3D

 30 33  0  0  0  0  0  0  0  0999 V2000
  108.7694  120.6571  110.5809 O   0  0  0  0  0  0  0  0  0  0  0  0
  108.1604  119.5715  110.7562 C   0  0  0  0  0  0  0  0  0  0  0  0
  108.4063  118.3721  109.8821 C   0  0  0  0  0  0  0  0  0  0  0  0
  107.0872  117.8648  109.3182 C   0  0  0  0  0  0  0  0  0  0  0  0
  106.1048  117.7239  110.4215 C   0  0  0  0  0  0  0  0  0  0  0  0
  105.0902  116.8135  110.2475 C   0  0  0  0  0  0  0  0  0  0  0  0
  104.1470  116.6277  111.2239 C   0  0  0  0  0  0  0  0  0  0  0  0
  104.1552  117.3363  112.4332 C   0  0  0  0  0  0  0  0  0  0  0  0
  103.1753  117.0555  113.3045 O   0  0  0  0  0  0  0  0  0  0  0  0
  102.9395  117.5211  114.5724 C   0  0  0  0  0  0  0  0  0  0  0  0
  101.7971  116.8382  115.2407 C   0  0  0  0  0  0  0  0  0  0  0  0
  101.5934  117.1949  116.6757 C   0  0  0  0  0  0  0  0  0  0  0  0
  100.8489  116.1968  117.4852 C   0  0  0  0  0  0  0  0  0  0  0  0
  100.6663  116.6872  118.8458 N   0  0  0  0  0  0  0  0  0  0  0  0
   99.4342  117.3630  119.0323 C   0  0  0  0  0  0  0  0  0  0  0  0
   99.6021  118.5477  119.9310 C   0  0  0  0  0  0  0  0  0  0  0  0
  100.4086  118.2108  121.0722 N   0  0  0  0  0  0  0  0  0  0  0  0
  100.0660  118.4657  122.4179 C   0  0  0  0  0  0  0  0  0  0  0  0
   98.7436  118.8602  122.6524 C   0  0  0  0  0  0  0  0  0  0  0  0
   98.2990  119.1271  123.9292 C   0  0  0  0  0  0  0  0  0  0  0  0
   99.1726  119.0055  125.0129 C   0  0  0  0  0  0  0  0  0  0  0  0
  100.4693  118.6209  124.8001 C   0  0  0  0  0  0  0  0  0  0  0  0
  101.5734  118.4662  126.1508 Cl  0  0  0  0  0  0  0  0  0  0  0  0
  100.8980  118.3551  123.4960 C   0  0  0  0  0  0  0  0  0  0  0  0
  102.5622  117.8791  123.3029 Cl  0  0  0  0  0  0  0  0  0  0  0  0
  101.7131  117.5649  120.8589 C   0  0  0  0  0  0  0  0  0  0  0  0
  101.8375  117.3237  119.3577 C   0  0  0  0  0  0  0  0  0  0  0  0
  105.1842  118.2379  112.5737 C   0  0  0  0  0  0  0  0  0  0  0  0
  106.1536  118.4419  111.5913 C   0  0  0  0  0  0  0  0  0  0  0  0
  107.1985  119.3967  111.7883 N   0  0  0  0  0  0  0  0  0  0  0  0
  1  2  2  0
  3  2  1  1
  3  4  1  0
  4  5  1  1
  5  6  2  0
  6  7  1  0
  7  8  2  0
  8  9  1  0
 10  9  1  1
 11 10  1  6
 11 12  1  0
 12 13  1  1
 13 14  1  6
 15 14  1  6
 15 16  1  0
 16 17  1  6
 17 18  1  0
 18 19  2  0
 19 20  1  0
 20 21  2  0
 21 22  1  0
 22 23  1  0
 22 24  2  0
 24 25  1  0
 26 17  1  6
 26 27  1  0
  8 28  1  0
 28 29  2  0
 29 30  1  0
 30  2  1  0
 29  5  1  0
 27 14  1  1
 24 18  1  0
M  END
$$$$
