
     RDKit          3D

 30 33  0  0  0  0  0  0  0  0999 V2000
  108.8016  116.6660  108.9832 O   0  0  0  0  0  0  0  0  0  0  0  0
  108.0148  117.4825  109.5257 C   0  0  0  0  0  0  0  0  0  0  0  0
  108.3630  118.9376  109.6827 C   0  0  0  0  0  0  0  0  0  0  0  0
  108.2023  119.3531  111.1376 C   0  0  0  0  0  0  0  0  0  0  0  0
  106.8768  118.9044  111.6316 C   0  0  0  0  0  0  0  0  0  0  0  0
  106.3233  119.6079  112.6741 C   0  0  0  0  0  0  0  0  0  0  0  0
  105.1012  119.2529  113.1821 C   0  0  0  0  0  0  0  0  0  0  0  0
  104.3549  118.1761  112.6840 C   0  0  0  0  0  0  0  0  0  0  0  0
  103.1724  117.9384  113.2698 O   0  0  0  0  0  0  0  0  0  0  0  0
  102.2708  116.9205  113.0939 C   0  0  0  0  0  0  0  0  0  0  0  0
  101.0237  117.1033  113.8871 C   0  0  0  0  0  0  0  0  0  0  0  0
  101.1970  117.0453  115.3685 C   0  0  0  0  0  0  0  0  0  0  0  0
   99.9662  117.2736  116.1676 C   0  0  0  0  0  0  0  0  0  0  0  0
  100.2339  117.0422  117.5819 N   0  0  0  0  0  0  0  0  0  0  0  0
   99.3142  117.7005  118.4365 C   0  0  0  0  0  0  0  0  0  0  0  0
  100.0023  118.2444  119.6490 C   0  0  0  0  0  0  0  0  0  0  0  0
  100.9128  117.2754  120.1951 N   0  0  0  0  0  0  0  0  0  0  0  0
  100.9616  116.8723  121.5473 C   0  0  0  0  0  0  0  0  0  0  0  0
   99.7325  116.5658  122.1430 C   0  0  0  0  0  0  0  0  0  0  0  0
   99.6642  116.1541  123.4564 C   0  0  0  0  0  0  0  0  0  0  0  0
  100.8326  116.0377  124.2138 C   0  0  0  0  0  0  0  0  0  0  0  0
  102.0426  116.3340  123.6457 C   0  0  0  0  0  0  0  0  0  0  0  0
  103.5134  116.1926  124.5858 Cl  0  0  0  0  0  0  0  0  0  0  0  0
  102.0876  116.7495  122.3114 C   0  0  0  0  0  0  0  0  0  0  0  0
  103.6608  117.1164  121.6604 Cl  0  0  0  0  0  0  0  0  0  0  0  0
  101.9026  116.6459  119.3073 C   0  0  0  0  0  0  0  0  0  0  0  0
  101.6196  117.1686  117.9022 C   0  0  0  0  0  0  0  0  0  0  0  0
  104.9384  117.4952  111.6412 C   0  0  0  0  0  0  0  0  0  0  0  0
  106.1816  117.8407  111.1105 C   0  0  0  0  0  0  0  0  0  0  0  0
  106.7433  117.0941  110.0293 N   0  0  0  0  0  0  0  0  0  0  0  0
  1  2  2  0
  3  2  1  1
  3  4  1  0
  4  5  1  1
  5  6  2  0
  6  7  1  0
  7  8  2  0
  8  9  1  0
 10  9  1  1
 11 10  1  6
 11 12  1  0
 12 13  1  1
 13 14  1  6
 15 14  1  6
 15 16  1  0
 16 17  1  6
 17 18  1  0
 18 19  2  0
 19 20  1  0
 20 21  2  0
 21 22  1  0
 22 23  1  0
 22 24  2  0
 24 25  1  0
 26 17  1  6
 26 27  1  0
  8 28  1  0
 28 29  2  0
 29 30  1  0
 30  2  1  0
 29  5  1  0
 27 14  1  1
 24 18  1  0
M  END
$$$$
