
     RDKit          3D

 30 33  0  0  0  0  0  0  0  0999 V2000
  108.9172  116.2422  109.2141 O   0  0  0  0  0  0  0  0  0  0  0  0
  108.0611  117.0570  109.6421 C   0  0  0  0  0  0  0  0  0  0  0  0
  108.3271  118.5369  109.6913 C   0  0  0  0  0  0  0  0  0  0  0  0
  108.0632  119.0629  111.0945 C   0  0  0  0  0  0  0  0  0  0  0  0
  106.7355  118.5855  111.5547 C   0  0  0  0  0  0  0  0  0  0  0  0
  106.0892  119.3424  112.5022 C   0  0  0  0  0  0  0  0  0  0  0  0
  104.8592  118.9650  112.9738 C   0  0  0  0  0  0  0  0  0  0  0  0
  104.1970  117.8115  112.5317 C   0  0  0  0  0  0  0  0  0  0  0  0
  102.9962  117.5595  113.0728 O   0  0  0  0  0  0  0  0  0  0  0  0
  102.3119  116.3823  113.2331 C   0  0  0  0  0  0  0  0  0  0  0  0
  101.0252  116.5512  113.9637 C   0  0  0  0  0  0  0  0  0  0  0  0
  101.1327  116.5435  115.4525 C   0  0  0  0  0  0  0  0  0  0  0  0
  101.1518  117.8795  116.1010 C   0  0  0  0  0  0  0  0  0  0  0  0
  101.5053  117.7505  117.5094 N   0  0  0  0  0  0  0  0  0  0  0  0
  101.0025  116.5651  118.1023 C   0  0  0  0  0  0  0  0  0  0  0  0
  100.5370  116.8202  119.5015 C   0  0  0  0  0  0  0  0  0  0  0  0
  101.4901  117.6244  120.2164 N   0  0  0  0  0  0  0  0  0  0  0  0
  102.0232  117.3212  121.4882 C   0  0  0  0  0  0  0  0  0  0  0  0
  103.1512  118.0550  121.8736 C   0  0  0  0  0  0  0  0  0  0  0  0
  103.7485  117.8463  123.0979 C   0  0  0  0  0  0  0  0  0  0  0  0
  103.2290  116.8906  123.9749 C   0  0  0  0  0  0  0  0  0  0  0  0
  102.1263  116.1646  123.6126 C   0  0  0  0  0  0  0  0  0  0  0  0
  101.4671  114.9634  124.7035 Cl  0  0  0  0  0  0  0  0  0  0  0  0
  101.5368  116.3936  122.3655 C   0  0  0  0  0  0  0  0  0  0  0  0
  100.1429  115.4267  121.9712 Cl  0  0  0  0  0  0  0  0  0  0  0  0
  101.9561  118.8833  119.6147 C   0  0  0  0  0  0  0  0  0  0  0  0
  101.3153  118.9669  118.2327 C   0  0  0  0  0  0  0  0  0  0  0  0
  104.8721  117.0788  111.5837 C   0  0  0  0  0  0  0  0  0  0  0  0
  106.1249  117.4459  111.0915 C   0  0  0  0  0  0  0  0  0  0  0  0
  106.7838  116.6434  110.1097 N   0  0  0  0  0  0  0  0  0  0  0  0
  1  2  2  0
  3  2  1  1
  3  4  1  0
  4  5  1  1
  5  6  2  0
  6  7  1  0
  7  8  2  0
  8  9  1  0
 10  9  1  1
 11 10  1  6
 11 12  1  0
 12 13  1  1
 13 14  1  6
 15 14  1  6
 15 16  1  0
 16 17  1  6
 17 18  1  0
 18 19  2  0
 19 20  1  0
 20 21  2  0
 21 22  1  0
 22 23  1  0
 22 24  2  0
 24 25  1  0
 26 17  1  6
 26 27  1  0
  8 28  1  0
 28 29  2  0
 29 30  1  0
 30  2  1  0
 29  5  1  0
 27 14  1  1
 24 18  1  0
M  END
$$$$
