
     RDKit          3D

 30 33  0  0  0  0  0  0  0  0999 V2000
  108.7306  120.9675  110.8787 O   0  0  0  0  0  0  0  0  0  0  0  0
  108.2146  119.8245  110.9645 C   0  0  0  0  0  0  0  0  0  0  0  0
  108.7447  118.6524  110.1845 C   0  0  0  0  0  0  0  0  0  0  0  0
  107.6167  118.0044  109.3952 C   0  0  0  0  0  0  0  0  0  0  0  0
  106.4618  117.7670  110.2965 C   0  0  0  0  0  0  0  0  0  0  0  0
  105.5983  116.7530  109.9581 C   0  0  0  0  0  0  0  0  0  0  0  0
  104.5106  116.4743  110.7434 C   0  0  0  0  0  0  0  0  0  0  0  0
  104.2151  117.1873  111.9134 C   0  0  0  0  0  0  0  0  0  0  0  0
  103.1214  116.8096  112.5910 O   0  0  0  0  0  0  0  0  0  0  0  0
  102.2470  117.5325  113.3609 C   0  0  0  0  0  0  0  0  0  0  0  0
  101.1945  116.6903  113.9939 C   0  0  0  0  0  0  0  0  0  0  0  0
  101.3035  116.5415  115.4751 C   0  0  0  0  0  0  0  0  0  0  0  0
  100.5237  117.5186  116.2769 C   0  0  0  0  0  0  0  0  0  0  0  0
  100.6007  117.1830  117.6935 N   0  0  0  0  0  0  0  0  0  0  0  0
   99.7805  118.0065  118.5051 C   0  0  0  0  0  0  0  0  0  0  0  0
  100.4601  118.3341  119.7975 C   0  0  0  0  0  0  0  0  0  0  0  0
  101.0720  117.1625  120.3622 N   0  0  0  0  0  0  0  0  0  0  0  0
  100.9034  116.7127  121.6898 C   0  0  0  0  0  0  0  0  0  0  0  0
   99.5847  116.6472  122.1548 C   0  0  0  0  0  0  0  0  0  0  0  0
   99.3042  116.2146  123.4328 C   0  0  0  0  0  0  0  0  0  0  0  0
  100.3435  115.8335  124.2854 C   0  0  0  0  0  0  0  0  0  0  0  0
  101.6388  115.8921  123.8456 C   0  0  0  0  0  0  0  0  0  0  0  0
  102.9496  115.4179  124.9059 Cl  0  0  0  0  0  0  0  0  0  0  0  0
  101.8995  116.3340  122.5449 C   0  0  0  0  0  0  0  0  0  0  0  0
  103.5712  116.3893  122.0593 Cl  0  0  0  0  0  0  0  0  0  0  0  0
  101.9698  116.3519  119.5248 C   0  0  0  0  0  0  0  0  0  0  0  0
  101.9434  116.9740  118.1321 C   0  0  0  0  0  0  0  0  0  0  0  0
  105.1000  118.1939  112.2218 C   0  0  0  0  0  0  0  0  0  0  0  0
  106.2126  118.4935  111.4351 C   0  0  0  0  0  0  0  0  0  0  0  0
  107.0968  119.5550  111.8006 N   0  0  0  0  0  0  0  0  0  0  0  0
  1  2  2  0
  3  2  1  1
  3  4  1  0
  4  5  1  1
  5  6  2  0
  6  7  1  0
  7  8  2  0
  8  9  1  0
 10  9  1  1
 11 10  1  6
 11 12  1  0
 12 13  1  1
 13 14  1  6
 15 14  1  6
 15 16  1  0
 16 17  1  6
 17 18  1  0
 18 19  2  0
 19 20  1  0
 20 21  2  0
 21 22  1  0
 22 23  1  0
 22 24  2  0
 24 25  1  0
 26 17  1  6
 26 27  1  0
  8 28  1  0
 28 29  2  0
 29 30  1  0
 30  2  1  0
 29  5  1  0
 27 14  1  1
 24 18  1  0
M  END
$$$$
