
     RDKit          3D

 30 33  0  0  0  0  0  0  0  0999 V2000
  -21.6006  -19.8741  147.1571 O   0  0  0  0  0  0  0  0  0  0  0  0
  -22.8278  -19.6876  146.9031 C   0  0  0  0  0  0  0  0  0  0  0  0
  -23.9099  -20.5241  147.4698 C   0  0  0  0  0  0  0  0  0  0  0  0
  -24.9036  -19.6419  148.1819 C   0  0  0  0  0  0  0  0  0  0  0  0
  -25.3066  -18.5419  147.2700 C   0  0  0  0  0  0  0  0  0  0  0  0
  -26.5637  -17.9912  147.4862 C   0  0  0  0  0  0  0  0  0  0  0  0
  -27.0180  -16.9708  146.6932 C   0  0  0  0  0  0  0  0  0  0  0  0
  -26.2014  -16.4927  145.6662 C   0  0  0  0  0  0  0  0  0  0  0  0
  -26.7282  -15.4573  144.9035 O   0  0  0  0  0  0  0  0  0  0  0  0
  -28.0779  -15.0902  145.1306 C   0  0  0  0  0  0  0  0  0  0  0  0
  -28.5418  -14.4015  143.8414 C   0  0  0  0  0  0  0  0  0  0  0  0
  -28.9825  -13.0156  144.1927 C   0  0  0  0  0  0  0  0  0  0  0  0
  -29.0410  -12.2320  142.8755 C   0  0  0  0  0  0  0  0  0  0  0  0
  -27.7045  -12.0324  142.3560 N   0  0  0  0  0  0  0  0  0  0  0  0
  -27.7470  -12.0811  140.9285 C   0  0  0  0  0  0  0  0  0  0  0  0
  -28.5286  -10.9677  140.2815 C   0  0  0  0  0  0  0  0  0  0  0  0
  -28.7676   -9.8513  141.1475 N   0  0  0  0  0  0  0  0  0  0  0  0
  -29.8271   -8.9436  140.8701 C   0  0  0  0  0  0  0  0  0  0  0  0
  -30.7283   -8.5954  141.8802 C   0  0  0  0  0  0  0  0  0  0  0  0
  -31.7641   -7.7126  141.6219 C   0  0  0  0  0  0  0  0  0  0  0  0
  -31.9388   -7.1487  140.3576 C   0  0  0  0  0  0  0  0  0  0  0  0
  -31.0544   -7.4889  139.3619 C   0  0  0  0  0  0  0  0  0  0  0  0
  -31.2432   -6.8010  137.7650 Cl  0  0  0  0  0  0  0  0  0  0  0  0
  -30.0262   -8.3692  139.6303 C   0  0  0  0  0  0  0  0  0  0  0  0
  -28.9396   -8.7564  138.3170 Cl  0  0  0  0  0  0  0  0  0  0  0  0
  -27.9518   -9.6025  142.3261 C   0  0  0  0  0  0  0  0  0  0  0  0
  -27.1314  -10.7822  142.7452 C   0  0  0  0  0  0  0  0  0  0  0  0
  -24.9482  -17.0296  145.4376 C   0  0  0  0  0  0  0  0  0  0  0  0
  -24.5092  -18.0631  146.2543 C   0  0  0  0  0  0  0  0  0  0  0  0
  -23.2248  -18.6193  146.0247 N   0  0  0  0  0  0  0  0  0  0  0  0
  1  2  2  0
  3  2  1  1
  3  4  1  0
  4  5  1  1
  5  6  2  0
  6  7  1  0
  7  8  2  0
  8  9  1  0
 10  9  1  1
 11 10  1  6
 11 12  1  0
 12 13  1  1
 13 14  1  6
 15 14  1  6
 15 16  1  0
 16 17  1  6
 17 18  1  0
 18 19  2  0
 19 20  1  0
 20 21  2  0
 21 22  1  0
 22 23  1  0
 22 24  2  0
 24 25  1  0
 26 17  1  6
 26 27  1  0
  8 28  1  0
 28 29  2  0
 29 30  1  0
 30  2  1  0
 29  5  1  0
 27 14  1  1
 24 18  1  0
M  END
$$$$
