
     RDKit          3D

 30 33  0  0  0  0  0  0  0  0999 V2000
  -31.1065   -4.8482  140.9524 O   0  0  0  0  0  0  0  0  0  0  0  0
  -31.0938   -6.0559  140.5695 C   0  0  0  0  0  0  0  0  0  0  0  0
  -31.3968   -6.4700  139.1808 C   0  0  0  0  0  0  0  0  0  0  0  0
  -30.2482   -7.2823  138.6388 C   0  0  0  0  0  0  0  0  0  0  0  0
  -29.9227   -8.3577  139.6091 C   0  0  0  0  0  0  0  0  0  0  0  0
  -29.3346   -9.5026  139.0862 C   0  0  0  0  0  0  0  0  0  0  0  0
  -28.9993  -10.5457  139.9083 C   0  0  0  0  0  0  0  0  0  0  0  0
  -29.2564  -10.4424  141.2769 C   0  0  0  0  0  0  0  0  0  0  0  0
  -28.8897  -11.5388  142.0483 O   0  0  0  0  0  0  0  0  0  0  0  0
  -27.5062  -11.7998  142.2097 C   0  0  0  0  0  0  0  0  0  0  0  0
  -27.4007  -12.7405  143.4160 C   0  0  0  0  0  0  0  0  0  0  0  0
  -26.9206  -14.0691  142.9233 C   0  0  0  0  0  0  0  0  0  0  0  0
  -26.1819  -14.7256  144.0962 C   0  0  0  0  0  0  0  0  0  0  0  0
  -24.7529  -14.6894  143.8666 N   0  0  0  0  0  0  0  0  0  0  0  0
  -24.1023  -14.2213  145.0496 C   0  0  0  0  0  0  0  0  0  0  0  0
  -24.2278  -15.1327  146.2424 C   0  0  0  0  0  0  0  0  0  0  0  0
  -24.6300  -16.4672  145.9093 N   0  0  0  0  0  0  0  0  0  0  0  0
  -25.2133  -17.3073  146.8980 C   0  0  0  0  0  0  0  0  0  0  0  0
  -24.5098  -18.4187  147.3708 C   0  0  0  0  0  0  0  0  0  0  0  0
  -25.0676  -19.2441  148.3333 C   0  0  0  0  0  0  0  0  0  0  0  0
  -26.3370  -18.9945  148.8561 C   0  0  0  0  0  0  0  0  0  0  0  0
  -27.0317  -17.9025  148.3934 C   0  0  0  0  0  0  0  0  0  0  0  0
  -28.6256  -17.5593  149.0264 Cl  0  0  0  0  0  0  0  0  0  0  0  0
  -26.4664  -17.0869  147.4344 C   0  0  0  0  0  0  0  0  0  0  0  0
  -27.4066  -15.7165  146.8926 Cl  0  0  0  0  0  0  0  0  0  0  0  0
  -24.4622  -17.0104  144.5702 C   0  0  0  0  0  0  0  0  0  0  0  0
  -24.2057  -15.9660  143.5292 C   0  0  0  0  0  0  0  0  0  0  0  0
  -29.8410   -9.3104  141.8134 C   0  0  0  0  0  0  0  0  0  0  0  0
  -30.1721   -8.2660  140.9605 C   0  0  0  0  0  0  0  0  0  0  0  0
  -30.7731   -7.1020  141.5040 N   0  0  0  0  0  0  0  0  0  0  0  0
  1  2  2  0
  3  2  1  1
  3  4  1  0
  4  5  1  1
  5  6  2  0
  6  7  1  0
  7  8  2  0
  8  9  1  0
 10  9  1  1
 11 10  1  6
 11 12  1  0
 12 13  1  1
 13 14  1  6
 15 14  1  6
 15 16  1  0
 16 17  1  6
 17 18  1  0
 18 19  2  0
 19 20  1  0
 20 21  2  0
 21 22  1  0
 22 23  1  0
 22 24  2  0
 24 25  1  0
 26 17  1  6
 26 27  1  0
  8 28  1  0
 28 29  2  0
 29 30  1  0
 30  2  1  0
 29  5  1  0
 27 14  1  1
 24 18  1  0
M  END
$$$$
