
     RDKit          3D

 30 33  0  0  0  0  0  0  0  0999 V2000
  -21.9904  -19.8418  147.1741 O   0  0  0  0  0  0  0  0  0  0  0  0
  -23.2528  -19.7342  147.1772 C   0  0  0  0  0  0  0  0  0  0  0  0
  -24.1358  -20.5644  148.0273 C   0  0  0  0  0  0  0  0  0  0  0  0
  -25.0103  -19.6676  148.8663 C   0  0  0  0  0  0  0  0  0  0  0  0
  -25.6654  -18.6728  147.9802 C   0  0  0  0  0  0  0  0  0  0  0  0
  -26.8806  -18.1620  148.4190 C   0  0  0  0  0  0  0  0  0  0  0  0
  -27.5556  -17.2381  147.6659 C   0  0  0  0  0  0  0  0  0  0  0  0
  -27.0062  -16.8177  146.4529 C   0  0  0  0  0  0  0  0  0  0  0  0
  -27.7464  -15.8794  145.7437 O   0  0  0  0  0  0  0  0  0  0  0  0
  -27.0605  -15.0695  144.8047 C   0  0  0  0  0  0  0  0  0  0  0  0
  -28.1516  -14.4035  143.9578 C   0  0  0  0  0  0  0  0  0  0  0  0
  -28.0179  -12.9219  144.1170 C   0  0  0  0  0  0  0  0  0  0  0  0
  -28.2125  -12.3162  142.7214 C   0  0  0  0  0  0  0  0  0  0  0  0
  -26.9633  -12.3412  141.9901 N   0  0  0  0  0  0  0  0  0  0  0  0
  -27.2236  -12.7123  140.6350 C   0  0  0  0  0  0  0  0  0  0  0  0
  -28.0491  -11.7218  139.8561 C   0  0  0  0  0  0  0  0  0  0  0  0
  -28.1092  -10.4221  140.4565 N   0  0  0  0  0  0  0  0  0  0  0  0
  -29.1614   -9.5258  140.1203 C   0  0  0  0  0  0  0  0  0  0  0  0
  -29.7845   -9.6197  138.8726 C   0  0  0  0  0  0  0  0  0  0  0  0
  -30.8101   -8.7524  138.5340 C   0  0  0  0  0  0  0  0  0  0  0  0
  -31.2492   -7.7671  139.4191 C   0  0  0  0  0  0  0  0  0  0  0  0
  -30.6387   -7.6719  140.6469 C   0  0  0  0  0  0  0  0  0  0  0  0
  -31.1637   -6.4486  141.7814 Cl  0  0  0  0  0  0  0  0  0  0  0  0
  -29.6180   -8.5411  140.9738 C   0  0  0  0  0  0  0  0  0  0  0  0
  -28.8878   -8.3622  142.5518 Cl  0  0  0  0  0  0  0  0  0  0  0  0
  -27.1149   -9.9713  141.4181 C   0  0  0  0  0  0  0  0  0  0  0  0
  -26.2883  -11.0812  141.9881 C   0  0  0  0  0  0  0  0  0  0  0  0
  -25.7982  -17.3159  146.0017 C   0  0  0  0  0  0  0  0  0  0  0  0
  -25.1323  -18.2514  146.7822 C   0  0  0  0  0  0  0  0  0  0  0  0
  -23.8930  -18.7676  146.3248 N   0  0  0  0  0  0  0  0  0  0  0  0
  1  2  2  0
  3  2  1  1
  3  4  1  0
  4  5  1  1
  5  6  2  0
  6  7  1  0
  7  8  2  0
  8  9  1  0
 10  9  1  1
 11 10  1  6
 11 12  1  0
 12 13  1  1
 13 14  1  6
 15 14  1  6
 15 16  1  0
 16 17  1  6
 17 18  1  0
 18 19  2  0
 19 20  1  0
 20 21  2  0
 21 22  1  0
 22 23  1  0
 22 24  2  0
 24 25  1  0
 26 17  1  6
 26 27  1  0
  8 28  1  0
 28 29  2  0
 29 30  1  0
 30  2  1  0
 29  5  1  0
 27 14  1  1
 24 18  1  0
M  END
$$$$
