
     RDKit          3D

 30 33  0  0  0  0  0  0  0  0999 V2000
  -30.4886   -5.5521  138.1987 O   0  0  0  0  0  0  0  0  0  0  0  0
  -30.3865   -5.7279  139.4493 C   0  0  0  0  0  0  0  0  0  0  0  0
  -31.3718   -5.2088  140.4247 C   0  0  0  0  0  0  0  0  0  0  0  0
  -31.8873   -6.3465  141.2690 C   0  0  0  0  0  0  0  0  0  0  0  0
  -30.7305   -7.1011  141.8131 C   0  0  0  0  0  0  0  0  0  0  0  0
  -30.9431   -7.7793  143.0069 C   0  0  0  0  0  0  0  0  0  0  0  0
  -29.9319   -8.5027  143.5817 C   0  0  0  0  0  0  0  0  0  0  0  0
  -28.6863   -8.5490  142.9520 C   0  0  0  0  0  0  0  0  0  0  0  0
  -27.7095   -9.3018  143.5927 O   0  0  0  0  0  0  0  0  0  0  0  0
  -28.1369  -10.3248  144.4752 C   0  0  0  0  0  0  0  0  0  0  0  0
  -26.9504  -11.2885  144.5969 C   0  0  0  0  0  0  0  0  0  0  0  0
  -27.3848  -12.6218  144.0754 C   0  0  0  0  0  0  0  0  0  0  0  0
  -27.0709  -12.6237  142.5741 C   0  0  0  0  0  0  0  0  0  0  0  0
  -27.0720  -13.9799  142.0677 N   0  0  0  0  0  0  0  0  0  0  0  0
  -28.4147  -14.3631  141.7638 C   0  0  0  0  0  0  0  0  0  0  0  0
  -29.0554  -13.5858  140.6438 C   0  0  0  0  0  0  0  0  0  0  0  0
  -28.1183  -12.8772  139.8232 N   0  0  0  0  0  0  0  0  0  0  0  0
  -28.5486  -11.7768  139.0312 C   0  0  0  0  0  0  0  0  0  0  0  0
  -27.8615  -11.4521  137.8581 C   0  0  0  0  0  0  0  0  0  0  0  0
  -28.2711  -10.3827  137.0788 C   0  0  0  0  0  0  0  0  0  0  0  0
  -29.3718   -9.6034  137.4368 C   0  0  0  0  0  0  0  0  0  0  0  0
  -30.0498   -9.9198  138.5898 C   0  0  0  0  0  0  0  0  0  0  0  0
  -31.4342   -8.9645  139.0692 Cl  0  0  0  0  0  0  0  0  0  0  0  0
  -29.6330  -10.9873  139.3586 C   0  0  0  0  0  0  0  0  0  0  0  0
  -30.5422  -11.3319  140.8112 Cl  0  0  0  0  0  0  0  0  0  0  0  0
  -26.7121  -13.2460  139.7659 C   0  0  0  0  0  0  0  0  0  0  0  0
  -26.2822  -14.1394  140.8871 C   0  0  0  0  0  0  0  0  0  0  0  0
  -28.4580   -7.8800  141.7640 C   0  0  0  0  0  0  0  0  0  0  0  0
  -29.4981   -7.1533  141.2003 C   0  0  0  0  0  0  0  0  0  0  0  0
  -29.2705   -6.4636  139.9820 N   0  0  0  0  0  0  0  0  0  0  0  0
  1  2  2  0
  3  2  1  1
  3  4  1  0
  4  5  1  1
  5  6  2  0
  6  7  1  0
  7  8  2  0
  8  9  1  0
 10  9  1  1
 11 10  1  6
 11 12  1  0
 12 13  1  1
 13 14  1  6
 15 14  1  6
 15 16  1  0
 16 17  1  6
 17 18  1  0
 18 19  2  0
 19 20  1  0
 20 21  2  0
 21 22  1  0
 22 23  1  0
 22 24  2  0
 24 25  1  0
 26 17  1  6
 26 27  1  0
  8 28  1  0
 28 29  2  0
 29 30  1  0
 30  2  1  0
 29  5  1  0
 27 14  1  1
 24 18  1  0
M  END
$$$$
