
     RDKit          3D

 30 33  0  0  0  0  0  0  0  0999 V2000
  -23.3751  -21.1308  148.9741 O   0  0  0  0  0  0  0  0  0  0  0  0
  -23.2457  -20.4511  147.9127 C   0  0  0  0  0  0  0  0  0  0  0  0
  -22.5152  -20.9387  146.7209 C   0  0  0  0  0  0  0  0  0  0  0  0
  -23.4214  -20.8748  145.5178 C   0  0  0  0  0  0  0  0  0  0  0  0
  -24.0156  -19.5167  145.4377 C   0  0  0  0  0  0  0  0  0  0  0  0
  -24.3897  -19.0811  144.1726 C   0  0  0  0  0  0  0  0  0  0  0  0
  -24.9473  -17.8413  144.0043 C   0  0  0  0  0  0  0  0  0  0  0  0
  -25.1341  -17.0227  145.1202 C   0  0  0  0  0  0  0  0  0  0  0  0
  -25.7047  -15.7799  144.8730 O   0  0  0  0  0  0  0  0  0  0  0  0
  -26.3482  -15.5847  143.6257 C   0  0  0  0  0  0  0  0  0  0  0  0
  -26.8934  -14.1519  143.6612 C   0  0  0  0  0  0  0  0  0  0  0  0
  -27.6972  -13.9342  142.4182 C   0  0  0  0  0  0  0  0  0  0  0  0
  -27.7000  -12.4219  142.1628 C   0  0  0  0  0  0  0  0  0  0  0  0
  -26.7333  -12.0891  141.1378 N   0  0  0  0  0  0  0  0  0  0  0  0
  -27.3616  -12.1780  139.8575 C   0  0  0  0  0  0  0  0  0  0  0  0
  -28.4600  -11.1744  139.6218 C   0  0  0  0  0  0  0  0  0  0  0  0
  -28.4381  -10.0698  140.5344 N   0  0  0  0  0  0  0  0  0  0  0  0
  -29.6102   -9.2920  140.7458 C   0  0  0  0  0  0  0  0  0  0  0  0
  -30.5419   -9.6844  141.7109 C   0  0  0  0  0  0  0  0  0  0  0  0
  -31.6871   -8.9351  141.9256 C   0  0  0  0  0  0  0  0  0  0  0  0
  -31.9440   -7.7762  141.1921 C   0  0  0  0  0  0  0  0  0  0  0  0
  -31.0299   -7.3873  140.2422 C   0  0  0  0  0  0  0  0  0  0  0  0
  -31.3196   -5.9398  139.3043 Cl  0  0  0  0  0  0  0  0  0  0  0  0
  -29.8925   -8.1413  140.0368 C   0  0  0  0  0  0  0  0  0  0  0  0
  -28.7742   -7.5872  138.8130 Cl  0  0  0  0  0  0  0  0  0  0  0  0
  -27.2382   -9.7029  141.2707 C   0  0  0  0  0  0  0  0  0  0  0  0
  -26.1925  -10.7737  141.2815 C   0  0  0  0  0  0  0  0  0  0  0  0
  -24.7674  -17.4408  146.3857 C   0  0  0  0  0  0  0  0  0  0  0  0
  -24.2041  -18.7015  146.5316 C   0  0  0  0  0  0  0  0  0  0  0  0
  -23.8245  -19.1365  147.8271 N   0  0  0  0  0  0  0  0  0  0  0  0
  1  2  2  0
  3  2  1  1
  3  4  1  0
  4  5  1  1
  5  6  2  0
  6  7  1  0
  7  8  2  0
  8  9  1  0
 10  9  1  1
 11 10  1  6
 11 12  1  0
 12 13  1  1
 13 14  1  6
 15 14  1  6
 15 16  1  0
 16 17  1  6
 17 18  1  0
 18 19  2  0
 19 20  1  0
 20 21  2  0
 21 22  1  0
 22 23  1  0
 22 24  2  0
 24 25  1  0
 26 17  1  6
 26 27  1  0
  8 28  1  0
 28 29  2  0
 29 30  1  0
 30  2  1  0
 29  5  1  0
 27 14  1  1
 24 18  1  0
M  END
$$$$
