
     RDKit          3D

 30 33  0  0  0  0  0  0  0  0999 V2000
  -30.4577   -4.8899  139.9403 O   0  0  0  0  0  0  0  0  0  0  0  0
  -30.4511   -6.1471  139.7832 C   0  0  0  0  0  0  0  0  0  0  0  0
  -30.5981   -6.8005  138.4629 C   0  0  0  0  0  0  0  0  0  0  0  0
  -29.4283   -7.7219  138.2275 C   0  0  0  0  0  0  0  0  0  0  0  0
  -29.2731   -8.6094  139.4074 C   0  0  0  0  0  0  0  0  0  0  0  0
  -28.6759   -9.8425  139.1771 C   0  0  0  0  0  0  0  0  0  0  0  0
  -28.4911  -10.7254  140.2080 C   0  0  0  0  0  0  0  0  0  0  0  0
  -28.9107  -10.3693  141.4914 C   0  0  0  0  0  0  0  0  0  0  0  0
  -28.6908  -11.3144  142.4863 O   0  0  0  0  0  0  0  0  0  0  0  0
  -27.4737  -11.2425  143.2084 C   0  0  0  0  0  0  0  0  0  0  0  0
  -27.6051  -12.2650  144.3436 C   0  0  0  0  0  0  0  0  0  0  0  0
  -27.1647  -13.5950  143.8185 C   0  0  0  0  0  0  0  0  0  0  0  0
  -26.4992  -14.3257  144.9914 C   0  0  0  0  0  0  0  0  0  0  0  0
  -25.3944  -15.1300  144.5134 N   0  0  0  0  0  0  0  0  0  0  0  0
  -24.4034  -15.2178  145.5392 C   0  0  0  0  0  0  0  0  0  0  0  0
  -24.8415  -15.9519  146.7795 C   0  0  0  0  0  0  0  0  0  0  0  0
  -26.0082  -16.7618  146.5891 N   0  0  0  0  0  0  0  0  0  0  0  0
  -26.7981  -17.1537  147.7053 C   0  0  0  0  0  0  0  0  0  0  0  0
  -26.3922  -18.2272  148.5032 C   0  0  0  0  0  0  0  0  0  0  0  0
  -27.1533  -18.6181  149.5927 C   0  0  0  0  0  0  0  0  0  0  0  0
  -28.3375  -17.9589  149.9247 C   0  0  0  0  0  0  0  0  0  0  0  0
  -28.7396  -16.9028  149.1422 C   0  0  0  0  0  0  0  0  0  0  0  0
  -30.2187  -16.0535  149.5291 Cl  0  0  0  0  0  0  0  0  0  0  0  0
  -27.9737  -16.5220  148.0593 C   0  0  0  0  0  0  0  0  0  0  0  0
  -28.5456  -15.1709  147.1090 Cl  0  0  0  0  0  0  0  0  0  0  0  0
  -26.4275  -17.2100  145.2701 C   0  0  0  0  0  0  0  0  0  0  0  0
  -25.7817  -16.4568  144.1494 C   0  0  0  0  0  0  0  0  0  0  0  0
  -29.5065   -9.1465  141.7377 C   0  0  0  0  0  0  0  0  0  0  0  0
  -29.6833   -8.2681  140.6771 C   0  0  0  0  0  0  0  0  0  0  0  0
  -30.2949   -7.0121  140.9224 N   0  0  0  0  0  0  0  0  0  0  0  0
  1  2  2  0
  3  2  1  1
  3  4  1  0
  4  5  1  1
  5  6  2  0
  6  7  1  0
  7  8  2  0
  8  9  1  0
 10  9  1  1
 11 10  1  6
 11 12  1  0
 12 13  1  1
 13 14  1  6
 15 14  1  6
 15 16  1  0
 16 17  1  6
 17 18  1  0
 18 19  2  0
 19 20  1  0
 20 21  2  0
 21 22  1  0
 22 23  1  0
 22 24  2  0
 24 25  1  0
 26 17  1  6
 26 27  1  0
  8 28  1  0
 28 29  2  0
 29 30  1  0
 30  2  1  0
 29  5  1  0
 27 14  1  1
 24 18  1  0
M  END
$$$$
