
     RDKit          3D

 30 33  0  0  0  0  0  0  0  0999 V2000
  -35.1630  -11.6376  153.0652 O   0  0  0  0  0  0  0  0  0  0  0  0
  -34.0329  -11.9353  152.5760 C   0  0  0  0  0  0  0  0  0  0  0  0
  -33.1557  -12.9859  153.1404 C   0  0  0  0  0  0  0  0  0  0  0  0
  -32.8204  -13.9885  152.0656 C   0  0  0  0  0  0  0  0  0  0  0  0
  -32.3219  -13.2613  150.8713 C   0  0  0  0  0  0  0  0  0  0  0  0
  -31.4606  -13.9631  150.0371 C   0  0  0  0  0  0  0  0  0  0  0  0
  -30.9521  -13.3712  148.9113 C   0  0  0  0  0  0  0  0  0  0  0  0
  -31.3110  -12.0547  148.6143 C   0  0  0  0  0  0  0  0  0  0  0  0
  -30.7569  -11.5205  147.4572 O   0  0  0  0  0  0  0  0  0  0  0  0
  -29.9501  -12.3687  146.6585 C   0  0  0  0  0  0  0  0  0  0  0  0
  -29.7001  -11.5969  145.3573 C   0  0  0  0  0  0  0  0  0  0  0  0
  -28.6491  -12.3279  144.5831 C   0  0  0  0  0  0  0  0  0  0  0  0
  -28.7117  -11.7871  143.1492 C   0  0  0  0  0  0  0  0  0  0  0  0
  -27.9417  -12.6352  142.2640 N   0  0  0  0  0  0  0  0  0  0  0  0
  -28.7802  -13.0761  141.1942 C   0  0  0  0  0  0  0  0  0  0  0  0
  -29.2615  -11.9824  140.2770 C   0  0  0  0  0  0  0  0  0  0  0  0
  -28.5099  -10.7670  140.3838 N   0  0  0  0  0  0  0  0  0  0  0  0
  -29.0729   -9.5359  139.9469 C   0  0  0  0  0  0  0  0  0  0  0  0
  -28.8555   -9.0962  138.6381 C   0  0  0  0  0  0  0  0  0  0  0  0
  -29.3985   -7.8990  138.2013 C   0  0  0  0  0  0  0  0  0  0  0  0
  -30.1720   -7.1020  139.0460 C   0  0  0  0  0  0  0  0  0  0  0  0
  -30.3878   -7.5313  140.3338 C   0  0  0  0  0  0  0  0  0  0  0  0
  -31.3525   -6.5576  141.4201 Cl  0  0  0  0  0  0  0  0  0  0  0  0
  -29.8421   -8.7256  140.7583 C   0  0  0  0  0  0  0  0  0  0  0  0
  -30.1576   -9.2092  142.4081 Cl  0  0  0  0  0  0  0  0  0  0  0  0
  -27.1632  -10.7403  140.9337 C   0  0  0  0  0  0  0  0  0  0  0  0
  -26.8060  -11.9750  141.7006 C   0  0  0  0  0  0  0  0  0  0  0  0
  -32.1666  -11.3424  149.4337 C   0  0  0  0  0  0  0  0  0  0  0  0
  -32.6693  -11.9633  150.5692 C   0  0  0  0  0  0  0  0  0  0  0  0
  -33.5470  -11.2379  151.4149 N   0  0  0  0  0  0  0  0  0  0  0  0
  1  2  2  0
  3  2  1  1
  3  4  1  0
  4  5  1  1
  5  6  2  0
  6  7  1  0
  7  8  2  0
  8  9  1  0
 10  9  1  1
 11 10  1  6
 11 12  1  0
 12 13  1  1
 13 14  1  6
 15 14  1  6
 15 16  1  0
 16 17  1  6
 17 18  1  0
 18 19  2  0
 19 20  1  0
 20 21  2  0
 21 22  1  0
 22 23  1  0
 22 24  2  0
 24 25  1  0
 26 17  1  6
 26 27  1  0
  8 28  1  0
 28 29  2  0
 29 30  1  0
 30  2  1  0
 29  5  1  0
 27 14  1  1
 24 18  1  0
M  END
$$$$
