
     RDKit          3D

 30 33  0  0  0  0  0  0  0  0999 V2000
  -34.6290   -9.9626  152.5533 O   0  0  0  0  0  0  0  0  0  0  0  0
  -33.7284  -10.7917  152.2265 C   0  0  0  0  0  0  0  0  0  0  0  0
  -33.6532  -12.1655  152.7729 C   0  0  0  0  0  0  0  0  0  0  0  0
  -33.6417  -13.1562  151.6366 C   0  0  0  0  0  0  0  0  0  0  0  0
  -32.5932  -12.7571  150.6644 C   0  0  0  0  0  0  0  0  0  0  0  0
  -32.0444  -13.7765  149.8964 C   0  0  0  0  0  0  0  0  0  0  0  0
  -31.0713  -13.5002  148.9728 C   0  0  0  0  0  0  0  0  0  0  0  0
  -30.6392  -12.1817  148.8143 C   0  0  0  0  0  0  0  0  0  0  0  0
  -29.6503  -11.9774  147.8595 O   0  0  0  0  0  0  0  0  0  0  0  0
  -29.4123  -13.0135  146.9227 C   0  0  0  0  0  0  0  0  0  0  0  0
  -28.5086  -12.3991  145.8469 C   0  0  0  0  0  0  0  0  0  0  0  0
  -29.1139  -12.6976  144.5117 C   0  0  0  0  0  0  0  0  0  0  0  0
  -28.3632  -11.8323  143.4919 C   0  0  0  0  0  0  0  0  0  0  0  0
  -27.8299  -12.6625  142.4324 N   0  0  0  0  0  0  0  0  0  0  0  0
  -28.9098  -13.1512  141.6345 C   0  0  0  0  0  0  0  0  0  0  0  0
  -29.6685  -12.0906  140.8804 C   0  0  0  0  0  0  0  0  0  0  0  0
  -28.9675  -10.8454  140.7735 N   0  0  0  0  0  0  0  0  0  0  0  0
  -29.6791   -9.6437  140.5033 C   0  0  0  0  0  0  0  0  0  0  0  0
  -30.3185   -8.9639  141.5438 C   0  0  0  0  0  0  0  0  0  0  0  0
  -31.0145   -7.7928  141.2928 C   0  0  0  0  0  0  0  0  0  0  0  0
  -31.0985   -7.2602  140.0058 C   0  0  0  0  0  0  0  0  0  0  0  0
  -30.4709   -7.9261  138.9802 C   0  0  0  0  0  0  0  0  0  0  0  0
  -30.5554   -7.2872  137.3543 Cl  0  0  0  0  0  0  0  0  0  0  0  0
  -29.7803   -9.0919  139.2416 C   0  0  0  0  0  0  0  0  0  0  0  0
  -29.0067   -9.8852  137.8897 Cl  0  0  0  0  0  0  0  0  0  0  0  0
  -27.5241  -10.7581  140.9337 C   0  0  0  0  0  0  0  0  0  0  0  0
  -26.9199  -11.9666  141.5776 C   0  0  0  0  0  0  0  0  0  0  0  0
  -31.1747  -11.1558  149.5703 C   0  0  0  0  0  0  0  0  0  0  0  0
  -32.1599  -11.4602  150.5002 C   0  0  0  0  0  0  0  0  0  0  0  0
  -32.7129  -10.4125  151.2801 N   0  0  0  0  0  0  0  0  0  0  0  0
  1  2  2  0
  3  2  1  1
  3  4  1  0
  4  5  1  1
  5  6  2  0
  6  7  1  0
  7  8  2  0
  8  9  1  0
 10  9  1  1
 11 10  1  6
 11 12  1  0
 12 13  1  1
 13 14  1  6
 15 14  1  6
 15 16  1  0
 16 17  1  6
 17 18  1  0
 18 19  2  0
 19 20  1  0
 20 21  2  0
 21 22  1  0
 22 23  1  0
 22 24  2  0
 24 25  1  0
 26 17  1  6
 26 27  1  0
  8 28  1  0
 28 29  2  0
 29 30  1  0
 30  2  1  0
 29  5  1  0
 27 14  1  1
 24 18  1  0
M  END
$$$$
