
     RDKit          3D

 30 33  0  0  0  0  0  0  0  0999 V2000
  -28.6621   -3.7624  139.1769 O   0  0  0  0  0  0  0  0  0  0  0  0
  -29.4027   -4.4234  139.9641 C   0  0  0  0  0  0  0  0  0  0  0  0
  -30.8591   -4.1922  140.0940 C   0  0  0  0  0  0  0  0  0  0  0  0
  -31.5952   -5.4841  139.8451 C   0  0  0  0  0  0  0  0  0  0  0  0
  -31.0007   -6.5452  140.6962 C   0  0  0  0  0  0  0  0  0  0  0  0
  -31.8384   -7.5973  141.0450 C   0  0  0  0  0  0  0  0  0  0  0  0
  -31.3743   -8.6216  141.8273 C   0  0  0  0  0  0  0  0  0  0  0  0
  -30.0497   -8.5935  142.2685 C   0  0  0  0  0  0  0  0  0  0  0  0
  -29.6496   -9.6653  143.0575 O   0  0  0  0  0  0  0  0  0  0  0  0
  -30.6591  -10.4926  143.6092 C   0  0  0  0  0  0  0  0  0  0  0  0
  -30.0147  -11.8735  143.7802 C   0  0  0  0  0  0  0  0  0  0  0  0
  -28.5749  -11.7613  143.3892 C   0  0  0  0  0  0  0  0  0  0  0  0
  -28.2738  -12.9679  142.4915 C   0  0  0  0  0  0  0  0  0  0  0  0
  -26.8891  -13.3638  142.6388 N   0  0  0  0  0  0  0  0  0  0  0  0
  -26.7400  -14.7133  142.1931 C   0  0  0  0  0  0  0  0  0  0  0  0
  -26.9955  -14.9252  140.7238 C   0  0  0  0  0  0  0  0  0  0  0  0
  -26.9630  -13.7181  139.9523 N   0  0  0  0  0  0  0  0  0  0  0  0
  -27.5999  -13.6628  138.6815 C   0  0  0  0  0  0  0  0  0  0  0  0
  -27.6598  -14.8077  137.8821 C   0  0  0  0  0  0  0  0  0  0  0  0
  -28.2772  -14.7659  136.6427 C   0  0  0  0  0  0  0  0  0  0  0  0
  -28.8531  -13.5910  136.1581 C   0  0  0  0  0  0  0  0  0  0  0  0
  -28.7960  -12.4631  136.9417 C   0  0  0  0  0  0  0  0  0  0  0  0
  -29.5075  -10.9728  136.3659 Cl  0  0  0  0  0  0  0  0  0  0  0  0
  -28.1785  -12.5161  138.1747 C   0  0  0  0  0  0  0  0  0  0  0  0
  -28.1433  -11.0443  139.1170 Cl  0  0  0  0  0  0  0  0  0  0  0  0
  -26.2896  -12.5189  140.4268 C   0  0  0  0  0  0  0  0  0  0  0  0
  -25.9877  -12.5431  141.8925 C   0  0  0  0  0  0  0  0  0  0  0  0
  -29.2031   -7.5542  141.9307 C   0  0  0  0  0  0  0  0  0  0  0  0
  -29.6959   -6.5272  141.1368 C   0  0  0  0  0  0  0  0  0  0  0  0
  -28.8331   -5.4572  140.7872 N   0  0  0  0  0  0  0  0  0  0  0  0
  1  2  2  0
  3  2  1  1
  3  4  1  0
  4  5  1  1
  5  6  2  0
  6  7  1  0
  7  8  2  0
  8  9  1  0
 10  9  1  1
 11 10  1  6
 11 12  1  0
 12 13  1  1
 13 14  1  6
 15 14  1  6
 15 16  1  0
 16 17  1  6
 17 18  1  0
 18 19  2  0
 19 20  1  0
 20 21  2  0
 21 22  1  0
 22 23  1  0
 22 24  2  0
 24 25  1  0
 26 17  1  6
 26 27  1  0
  8 28  1  0
 28 29  2  0
 29 30  1  0
 30  2  1  0
 29  5  1  0
 27 14  1  1
 24 18  1  0
M  END
$$$$
