
     RDKit          3D

 30 33  0  0  0  0  0  0  0  0999 V2000
  -33.2003  -13.2911  154.4466 O   0  0  0  0  0  0  0  0  0  0  0  0
  -33.3787  -12.9698  153.2341 C   0  0  0  0  0  0  0  0  0  0  0  0
  -34.5540  -12.2032  152.7623 C   0  0  0  0  0  0  0  0  0  0  0  0
  -34.0867  -10.9726  152.0274 C   0  0  0  0  0  0  0  0  0  0  0  0
  -33.0881  -11.3757  151.0056 C   0  0  0  0  0  0  0  0  0  0  0  0
  -32.9719  -10.5472  149.8965 C   0  0  0  0  0  0  0  0  0  0  0  0
  -32.0750  -10.8411  148.9038 C   0  0  0  0  0  0  0  0  0  0  0  0
  -31.2803  -11.9832  149.0220 C   0  0  0  0  0  0  0  0  0  0  0  0
  -30.3940  -12.2173  147.9775 O   0  0  0  0  0  0  0  0  0  0  0  0
  -30.8549  -11.9906  146.6568 C   0  0  0  0  0  0  0  0  0  0  0  0
  -29.6367  -12.2062  145.7508 C   0  0  0  0  0  0  0  0  0  0  0  0
  -30.0768  -12.0135  144.3339 C   0  0  0  0  0  0  0  0  0  0  0  0
  -28.8199  -11.6460  143.5354 C   0  0  0  0  0  0  0  0  0  0  0  0
  -28.3717  -12.7848  142.7620 N   0  0  0  0  0  0  0  0  0  0  0  0
  -29.4202  -13.1919  141.8807 C   0  0  0  0  0  0  0  0  0  0  0  0
  -29.7796  -12.1854  140.8191 C   0  0  0  0  0  0  0  0  0  0  0  0
  -28.7817  -11.1767  140.6187 N   0  0  0  0  0  0  0  0  0  0  0  0
  -29.1267   -9.9394  140.0074 C   0  0  0  0  0  0  0  0  0  0  0  0
  -29.2416   -8.7853  140.7874 C   0  0  0  0  0  0  0  0  0  0  0  0
  -29.5771   -7.5749  140.2033 C   0  0  0  0  0  0  0  0  0  0  0  0
  -29.8086   -7.4706  138.8312 C   0  0  0  0  0  0  0  0  0  0  0  0
  -29.6964   -8.6036  138.0612 C   0  0  0  0  0  0  0  0  0  0  0  0
  -29.9796   -8.5098  136.3378 Cl  0  0  0  0  0  0  0  0  0  0  0  0
  -29.3616   -9.8042  138.6535 C   0  0  0  0  0  0  0  0  0  0  0  0
  -29.2367  -11.2034  137.6134 Cl  0  0  0  0  0  0  0  0  0  0  0  0
  -27.3982  -11.3709  141.0244 C   0  0  0  0  0  0  0  0  0  0  0  0
  -27.2089  -12.5088  141.9780 C   0  0  0  0  0  0  0  0  0  0  0  0
  -31.3832  -12.8182  150.1190 C   0  0  0  0  0  0  0  0  0  0  0  0
  -32.2995  -12.4998  151.1125 C   0  0  0  0  0  0  0  0  0  0  0  0
  -32.4111  -13.3526  152.2402 N   0  0  0  0  0  0  0  0  0  0  0  0
  1  2  2  0
  3  2  1  1
  3  4  1  0
  4  5  1  1
  5  6  2  0
  6  7  1  0
  7  8  2  0
  8  9  1  0
 10  9  1  1
 11 10  1  6
 11 12  1  0
 12 13  1  1
 13 14  1  6
 15 14  1  6
 15 16  1  0
 16 17  1  6
 17 18  1  0
 18 19  2  0
 19 20  1  0
 20 21  2  0
 21 22  1  0
 22 23  1  0
 22 24  2  0
 24 25  1  0
 26 17  1  6
 26 27  1  0
  8 28  1  0
 28 29  2  0
 29 30  1  0
 30  2  1  0
 29  5  1  0
 27 14  1  1
 24 18  1  0
M  END
$$$$
